/*---------------------------------------------------------------------------*\
| =========                 |                                                 |
| \\      /  F ield         | OpenFOAM: The Open Source CFD Toolbox           |
|  \\    /   O peration     | Version:  2206                                  |
|   \\  /    A nd           | Website:  www.openfoam.com                      |
|    \\/     M anipulation  |                                                 |
\*---------------------------------------------------------------------------*/
Build  : _76d719d1-20220624 OPENFOAM=2206 version=2206
Arch   : "LSB;label=32;scalar=64"
Exec   : waveMyFoam -parallel
Date   : Dec 09 2022
Time   : 16:14:48
Host   : DESKTOP-I4BRV78
PID    : 7578
I/O    : uncollated
Case   : /mnt/e/OF_result/Bozorgnia-2012/1
nProcs : 32
Hosts  :
(
    (DESKTOP-I4BRV78 32)
)
Pstream initialized with:
    floatTransfer      : 0
    nProcsSimpleSum    : 0
    commsType          : nonBlocking
    polling iterations : 0
trapFpe: Floating point exception trapping enabled (FOAM_SIGFPE).
fileModificationChecking : Monitoring run-time modified files using timeStampMaster (fileModificationSkew 5, maxFileModificationPolls 20)
allowSystemOperations : Allowing user-supplied system call operations

// * * * * * * * * * * * * * * * * * * * * * * * * * * * * * * * * * * * * * //
Create time

Create mesh for time = 2

Selecting dynamicFvMesh staticFvMesh
// using new solver syntax:
pcorr
{
    solver          GAMG;
    tolerance       1e-07;
    relTol          0;
    smoother        DIC;
    nPreSweeps      0;
    nPostSweeps     2;
    nFinestSweeps   2;
    cacheAgglomeration true;
    nCellsInCoarsestLevel 10;
    agglomerator    faceAreaPair;
    mergeLevels     1;
}

// using new solver syntax:
pcorrFinal
{
    solver          GAMG;
    tolerance       1e-07;
    relTol          0;
    smoother        DIC;
    nPreSweeps      0;
    nPostSweeps     2;
    nFinestSweeps   2;
    cacheAgglomeration true;
    nCellsInCoarsestLevel 10;
    agglomerator    faceAreaPair;
    mergeLevels     1;
}

// using new solver syntax:
p_rgh
{
    solver          GAMG;
    tolerance       1e-07;
    relTol          0;
    smoother        DIC;
    nPreSweeps      0;
    nPostSweeps     2;
    nFinestSweeps   2;
    cacheAgglomeration true;
    nCellsInCoarsestLevel 10;
    agglomerator    faceAreaPair;
    mergeLevels     1;
}

// using new solver syntax:
p_rghFinal
{
    solver          GAMG;
    tolerance       1e-08;
    relTol          0;
    smoother        DIC;
    nPreSweeps      0;
    nPostSweeps     2;
    nFinestSweeps   2;
    cacheAgglomeration true;
    nCellsInCoarsestLevel 10;
    agglomerator    faceAreaPair;
    mergeLevels     1;
}

// using new solver syntax:
U
{
    solver          PBiCG;
    preconditioner  DILU;
    tolerance       1e-09;
    relTol          0;
}

// using new solver syntax:
UFinal
{
    solver          PBiCG;
    preconditioner  DILU;
    tolerance       1e-09;
    relTol          0;
}

// using new solver syntax:
gamma
{
    solver          PBiCG;
    preconditioner  DILU;
    tolerance       1e-07;
    relTol          0;
}


Reading g

Reading waveProperties

Reading waveProperties

PIMPLE: max iterations = 5
    field U	: relTol 0, tolerance 0.001
    field p_rgh	: relTol 0, tolerance 0.001
    field "alpha.water"	: relTol 0, tolerance 0.001

Reading field p_rgh

Reading field U

Reading/calculating face flux field phi

Reading transportProperties

Selecting incompressible transport model Newtonian
Selecting incompressible transport model Newtonian
Selecting turbulence model type laminar
Selecting laminar stress model Stokes
No MRF models present

No finite volume options present
Restarting alpha
GAMG:  Solving for pcorr, Initial residual = 1, Final residual = 9.15596e-08, No Iterations 99
GAMG:  Solving for pcorr, Initial residual = 9.08381e-05, Final residual = 9.95144e-08, No Iterations 7
time step continuity errors : sum local = 1.12167e-14, global = -6.74775e-16, cumulative = -3.61419e-10
Courant Number mean: 0.00333341 max: 0.483211

Starting time loop

Sampled set:
    gauge_0 -> raw
    gauge_1 -> raw
    gauge_2 -> raw
    gauge_3 -> raw
    gauge_4 -> raw
    gauge_5 -> raw
    gauge_6 -> raw
    gauge_7 -> raw
    gauge_8 -> raw
    gauge_9 -> raw
    gauge_10 -> raw
    gauge_11 -> raw
    gauge_12 -> raw
    gauge_13 -> raw
    gauge_14 -> raw
    gauge_15 -> raw
    gauge_16 -> raw
    gauge_17 -> raw
    gauge_18 -> raw
    gauge_19 -> raw
    gauge_20 -> raw
    gauge_21 -> raw
    gauge_22 -> raw
    gauge_23 -> raw
    gauge_24 -> raw
    gauge_25 -> raw
    gauge_26 -> raw
    gauge_27 -> raw
    gauge_28 -> raw
    gauge_29 -> raw
    gauge_30 -> raw
    gauge_31 -> raw
    gauge_32 -> raw
    gauge_33 -> raw
    gauge_34 -> raw
    gauge_35 -> raw
    gauge_36 -> raw
    gauge_37 -> raw
    gauge_38 -> raw
    gauge_39 -> raw
    gauge_40 -> raw
    gauge_41 -> raw
    gauge_42 -> raw
    gauge_43 -> raw
    gauge_44 -> raw
    gauge_45 -> raw
    gauge_46 -> raw
    gauge_47 -> raw
    gauge_48 -> raw
    gauge_49 -> raw
    gauge_50 -> raw
    gauge_51 -> raw
    gauge_52 -> raw
    gauge_53 -> raw
    gauge_54 -> raw
    gauge_55 -> raw
    gauge_56 -> raw
    gauge_57 -> raw
    gauge_58 -> raw
    gauge_59 -> raw
    gauge_60 -> raw
    gauge_61 -> raw
    gauge_62 -> raw
    gauge_63 -> raw
    gauge_64 -> raw
    gauge_65 -> raw
    gauge_66 -> raw
    gauge_67 -> raw
    gauge_68 -> raw
    gauge_69 -> raw
    gauge_70 -> raw
    gauge_71 -> raw
    gauge_72 -> raw
    gauge_73 -> raw
    gauge_74 -> raw
    gauge_75 -> raw
    gauge_76 -> raw
    gauge_77 -> raw
    gauge_78 -> raw
    gauge_79 -> raw
    gauge_80 -> raw
    gauge_81 -> raw
    gauge_82 -> raw
    gauge_83 -> raw
    gauge_84 -> raw
    gauge_85 -> raw
    gauge_86 -> raw
    gauge_87 -> raw
    gauge_88 -> raw
    gauge_89 -> raw
    gauge_90 -> raw
    gauge_91 -> raw
    gauge_92 -> raw
    gauge_93 -> raw
    gauge_94 -> raw
    gauge_95 -> raw
    gauge_96 -> raw
    gauge_97 -> raw
    gauge_98 -> raw
    gauge_99 -> raw
    gauge_100 -> raw
    gauge_101 -> raw
    gauge_102 -> raw
    gauge_103 -> raw
    gauge_104 -> raw
    gauge_105 -> raw
    gauge_106 -> raw
    gauge_107 -> raw
    gauge_108 -> raw
    gauge_109 -> raw
    gauge_110 -> raw
    gauge_111 -> raw
    gauge_112 -> raw
    gauge_113 -> raw
    gauge_114 -> raw
    gauge_115 -> raw
    gauge_116 -> raw
    gauge_117 -> raw
    gauge_118 -> raw
    gauge_119 -> raw
    gauge_120 -> raw
    gauge_121 -> raw
    gauge_122 -> raw
    gauge_123 -> raw
    gauge_124 -> raw
    gauge_125 -> raw
    gauge_126 -> raw
    gauge_127 -> raw
    gauge_128 -> raw
    gauge_129 -> raw
    gauge_130 -> raw
    gauge_131 -> raw
    gauge_132 -> raw
    gauge_133 -> raw
    gauge_134 -> raw
    gauge_135 -> raw
    gauge_136 -> raw
    gauge_137 -> raw
    gauge_138 -> raw
    gauge_139 -> raw
    gauge_140 -> raw
    gauge_141 -> raw
    gauge_142 -> raw
    gauge_143 -> raw
    gauge_144 -> raw
    gauge_145 -> raw
    gauge_146 -> raw
    gauge_147 -> raw
    gauge_148 -> raw
    gauge_149 -> raw
    gauge_150 -> raw
    gauge_151 -> raw
    gauge_152 -> raw
    gauge_153 -> raw
    gauge_154 -> raw
    gauge_155 -> raw
    gauge_156 -> raw
    gauge_157 -> raw
    gauge_158 -> raw
    gauge_159 -> raw
    gauge_160 -> raw
    gauge_161 -> raw
    gauge_162 -> raw
    gauge_163 -> raw
    gauge_164 -> raw
    gauge_165 -> raw
    gauge_166 -> raw
    gauge_167 -> raw
    gauge_168 -> raw
    gauge_169 -> raw
    gauge_170 -> raw
    gauge_171 -> raw
    gauge_172 -> raw
    gauge_173 -> raw
    gauge_174 -> raw
    gauge_175 -> raw
    gauge_176 -> raw
    gauge_177 -> raw
    gauge_178 -> raw

forces forces:
    p: p_rgh
    Not including porosity effects

printing gMax(sumPhi)
0.039421
printing gAverage(sumPhi)
0.00115983
printing gMax(sumPhi/mesh.V().field())
618.511
Courant Number mean: 0.00333341 max: 0.483211
Interface Courant Number mean: 7.44096e-05 max: 0.460221
deltaT = 0.0016129
Time = 2.00161

PIMPLE: iteration 1
smoothSolver:  Solving for alpha.water, Initial residual = 2.04844e-05, Final residual = 1.27672e-10, No Iterations 2
Phase-1 volume fraction = 0.377058  Min(alpha.water) = -7.29542e-24  Max(alpha.water) = 1
MULES: Correcting alpha.water
Phase-1 volume fraction = 0.377058  Min(alpha.water) = -1.39897e-21  Max(alpha.water) = 1
Relaxing time: 0.02 s
DILUPBiCG:  Solving for Ux, Initial residual = 0.00191443, Final residual = 9.35319e-11, No Iterations 4
DILUPBiCG:  Solving for Uy, Initial residual = 0.00223647, Final residual = 1.17837e-10, No Iterations 4
GAMG:  Solving for p_rgh, Initial residual = 0.057637, Final residual = 9.0301e-08, No Iterations 37
GAMG:  Solving for p_rgh, Initial residual = 0.000669167, Final residual = 7.80811e-08, No Iterations 8
time step continuity errors : sum local = 1.07993e-10, global = 2.74631e-11, cumulative = -3.33956e-10
GAMG:  Solving for p_rgh, Initial residual = 0.00115515, Final residual = 7.02065e-08, No Iterations 10
GAMG:  Solving for p_rgh, Initial residual = 0.000109043, Final residual = 5.07034e-08, No Iterations 6
time step continuity errors : sum local = 7.00768e-11, global = -1.6868e-11, cumulative = -3.50824e-10
GAMG:  Solving for p_rgh, Initial residual = 9.15784e-05, Final residual = 5.74667e-08, No Iterations 6
GAMG:  Solving for p_rgh, Initial residual = 3.17669e-05, Final residual = 8.90884e-09, No Iterations 7
time step continuity errors : sum local = 1.23128e-11, global = 7.38763e-13, cumulative = -3.50085e-10
PIMPLE: iteration 2
smoothSolver:  Solving for alpha.water, Initial residual = 1.68355e-05, Final residual = 6.90113e-11, No Iterations 2
Phase-1 volume fraction = 0.377058  Min(alpha.water) = -7.29622e-24  Max(alpha.water) = 1
MULES: Correcting alpha.water
Phase-1 volume fraction = 0.377058  Min(alpha.water) = -5.59588e-21  Max(alpha.water) = 1
Relaxing time: 0.02 s
DILUPBiCG:  Solving for Ux, Initial residual = 0.000312108, Final residual = 2.18875e-10, No Iterations 3
DILUPBiCG:  Solving for Uy, Initial residual = 0.000486695, Final residual = 4.08931e-10, No Iterations 3
GAMG:  Solving for p_rgh, Initial residual = 0.00101725, Final residual = 8.39463e-08, No Iterations 14
GAMG:  Solving for p_rgh, Initial residual = 4.14051e-05, Final residual = 9.43687e-08, No Iterations 4
time step continuity errors : sum local = 1.30976e-10, global = 1.46693e-12, cumulative = -3.48618e-10
GAMG:  Solving for p_rgh, Initial residual = 3.38312e-05, Final residual = 6.62935e-08, No Iterations 4
GAMG:  Solving for p_rgh, Initial residual = 7.30124e-06, Final residual = 6.37712e-08, No Iterations 3
time step continuity errors : sum local = 8.85099e-11, global = 3.43118e-13, cumulative = -3.48275e-10
GAMG:  Solving for p_rgh, Initial residual = 4.84445e-06, Final residual = 9.18761e-08, No Iterations 2
GAMG:  Solving for p_rgh, Initial residual = 2.32552e-06, Final residual = 7.64652e-09, No Iterations 5
time step continuity errors : sum local = 1.06128e-11, global = -1.54911e-14, cumulative = -3.4829e-10
PIMPLE: iteration 3
smoothSolver:  Solving for alpha.water, Initial residual = 1.68229e-05, Final residual = 6.924e-11, No Iterations 2
Phase-1 volume fraction = 0.377058  Min(alpha.water) = -7.29454e-24  Max(alpha.water) = 1
MULES: Correcting alpha.water
Phase-1 volume fraction = 0.377058  Min(alpha.water) = -4.20784e-21  Max(alpha.water) = 1
Relaxing time: 0.02 s
DILUPBiCG:  Solving for Ux, Initial residual = 0.000312253, Final residual = 2.19089e-10, No Iterations 3
DILUPBiCG:  Solving for Uy, Initial residual = 0.000485672, Final residual = 4.05881e-10, No Iterations 3
GAMG:  Solving for p_rgh, Initial residual = 0.000123824, Final residual = 9.40443e-08, No Iterations 7
GAMG:  Solving for p_rgh, Initial residual = 3.66538e-06, Final residual = 7.73425e-08, No Iterations 2
time step continuity errors : sum local = 1.07361e-10, global = 3.74295e-13, cumulative = -3.47916e-10
GAMG:  Solving for p_rgh, Initial residual = 5.94548e-06, Final residual = 8.1763e-08, No Iterations 2
GAMG:  Solving for p_rgh, Initial residual = 7.07699e-07, Final residual = 7.58896e-08, No Iterations 1
time step continuity errors : sum local = 1.05345e-10, global = 5.6016e-13, cumulative = -3.47356e-10
GAMG:  Solving for p_rgh, Initial residual = 5.02333e-07, Final residual = 4.63663e-08, No Iterations 1
GAMG:  Solving for p_rgh, Initial residual = 2.04617e-07, Final residual = 8.4155e-09, No Iterations 4
time step continuity errors : sum local = 1.16818e-11, global = -2.55997e-14, cumulative = -3.47381e-10
PIMPLE: converged in 3 iterations
ExecutionTime = 5.28 s  ClockTime = 61 s

forces forces write:
    Sum of forces
        Total    : (0.678139 0.53603 1.33172e-24)
        Pressure : (0.678163 0.531131 0)
        Viscous  : (-2.41103e-05 0.00489903 1.33172e-24)
    Sum of moments
        Total    : (2.50953e-24 -3.97025e-23 15.7938)
        Pressure : (0 0 15.6425)
        Viscous  : (2.50953e-24 -3.97025e-23 0.15125)
    writing force and moment files.

yPlus yPlus1 write:
    writing field yPlus
    patch BOTTOM y+ : min = 1.05539e-05, max = 104.584, average = 17.45
    patch WALL y+ : min = 0.00609375, max = 20.4458, average = 4.10372
printing gMax(sumPhi)
0.0394305
printing gAverage(sumPhi)
0.00115973
printing gMax(sumPhi/mesh.V().field())
622.514
Courant Number mean: 0.00344064 max: 0.502027
Interface Courant Number mean: 7.69017e-05 max: 0.482068
deltaT = 0.0016129
Time = 2.00323

PIMPLE: iteration 1
smoothSolver:  Solving for alpha.water, Initial residual = 2.04741e-05, Final residual = 1.21964e-10, No Iterations 2
Phase-1 volume fraction = 0.377059  Min(alpha.water) = -5.86038e-24  Max(alpha.water) = 1
MULES: Correcting alpha.water
Phase-1 volume fraction = 0.377059  Min(alpha.water) = -1.11918e-20  Max(alpha.water) = 1
Relaxing time: 0.01 s
DILUPBiCG:  Solving for Ux, Initial residual = 0.00181588, Final residual = 9.22001e-11, No Iterations 4
DILUPBiCG:  Solving for Uy, Initial residual = 0.00230142, Final residual = 1.74245e-10, No Iterations 4
GAMG:  Solving for p_rgh, Initial residual = 0.0585848, Final residual = 8.99083e-08, No Iterations 35
GAMG:  Solving for p_rgh, Initial residual = 0.000672238, Final residual = 7.636e-08, No Iterations 8
time step continuity errors : sum local = 1.0603e-10, global = 2.78844e-11, cumulative = -3.19497e-10
GAMG:  Solving for p_rgh, Initial residual = 0.00124727, Final residual = 6.45144e-08, No Iterations 10
GAMG:  Solving for p_rgh, Initial residual = 0.000108479, Final residual = 4.52381e-08, No Iterations 6
time step continuity errors : sum local = 6.28691e-11, global = -1.30753e-11, cumulative = -3.32572e-10
GAMG:  Solving for p_rgh, Initial residual = 9.10034e-05, Final residual = 6.254e-08, No Iterations 6
GAMG:  Solving for p_rgh, Initial residual = 3.15868e-05, Final residual = 7.76504e-09, No Iterations 8
time step continuity errors : sum local = 1.07912e-11, global = -3.32598e-12, cumulative = -3.35898e-10
PIMPLE: iteration 2
smoothSolver:  Solving for alpha.water, Initial residual = 1.64746e-05, Final residual = 7.15026e-11, No Iterations 2
Phase-1 volume fraction = 0.377059  Min(alpha.water) = -1.85924e-23  Max(alpha.water) = 1
MULES: Correcting alpha.water
Phase-1 volume fraction = 0.377059  Min(alpha.water) = -5.59588e-21  Max(alpha.water) = 1
Relaxing time: 0.01 s
DILUPBiCG:  Solving for Ux, Initial residual = 0.000398841, Final residual = 2.47872e-10, No Iterations 3
DILUPBiCG:  Solving for Uy, Initial residual = 0.000349389, Final residual = 3.42407e-10, No Iterations 3
GAMG:  Solving for p_rgh, Initial residual = 0.00107545, Final residual = 7.21628e-08, No Iterations 12
GAMG:  Solving for p_rgh, Initial residual = 4.14641e-05, Final residual = 6.05614e-08, No Iterations 5
time step continuity errors : sum local = 8.39569e-11, global = -8.21014e-13, cumulative = -3.36719e-10
GAMG:  Solving for p_rgh, Initial residual = 3.47555e-05, Final residual = 7.48556e-08, No Iterations 4
GAMG:  Solving for p_rgh, Initial residual = 7.33376e-06, Final residual = 6.81338e-08, No Iterations 3
time step continuity errors : sum local = 9.4451e-11, global = 1.50427e-13, cumulative = -3.36569e-10
GAMG:  Solving for p_rgh, Initial residual = 4.80337e-06, Final residual = 9.04692e-08, No Iterations 2
GAMG:  Solving for p_rgh, Initial residual = 2.34663e-06, Final residual = 9.40298e-09, No Iterations 4
time step continuity errors : sum local = 1.30349e-11, global = 2.78619e-14, cumulative = -3.36541e-10
PIMPLE: iteration 3
smoothSolver:  Solving for alpha.water, Initial residual = 1.64599e-05, Final residual = 7.17293e-11, No Iterations 2
Phase-1 volume fraction = 0.377059  Min(alpha.water) = -1.85916e-23  Max(alpha.water) = 1
MULES: Correcting alpha.water
Phase-1 volume fraction = 0.377059  Min(alpha.water) = -1.11918e-20  Max(alpha.water) = 1
Relaxing time: 0.01 s
DILUPBiCG:  Solving for Ux, Initial residual = 0.00039878, Final residual = 2.48886e-10, No Iterations 3
DILUPBiCG:  Solving for Uy, Initial residual = 0.000349693, Final residual = 3.4246e-10, No Iterations 3
GAMG:  Solving for p_rgh, Initial residual = 0.000136588, Final residual = 7.16007e-08, No Iterations 7
GAMG:  Solving for p_rgh, Initial residual = 3.65002e-06, Final residual = 6.93485e-08, No Iterations 2
time step continuity errors : sum local = 9.61193e-11, global = -1.18975e-12, cumulative = -3.37731e-10
GAMG:  Solving for p_rgh, Initial residual = 6.40604e-06, Final residual = 9.63469e-08, No Iterations 2
GAMG:  Solving for p_rgh, Initial residual = 7.17686e-07, Final residual = 8.18692e-08, No Iterations 1
time step continuity errors : sum local = 1.13473e-10, global = -1.68518e-12, cumulative = -3.39416e-10
GAMG:  Solving for p_rgh, Initial residual = 5.20312e-07, Final residual = 4.94864e-08, No Iterations 1
GAMG:  Solving for p_rgh, Initial residual = 2.10792e-07, Final residual = 7.37153e-09, No Iterations 4
time step continuity errors : sum local = 1.02172e-11, global = 7.40161e-14, cumulative = -3.39342e-10
PIMPLE: converged in 3 iterations
ExecutionTime = 5.9 s  ClockTime = 61 s

forces forces write:
    Sum of forces
        Total    : (0.675578 0.519934 1.40299e-24)
        Pressure : (0.67561 0.515097 0)
        Viscous  : (-3.14331e-05 0.00483746 1.40299e-24)
    Sum of moments
        Total    : (2.64394e-24 -4.19297e-23 15.3251)
        Pressure : (0 0 15.1757)
        Viscous  : (2.64394e-24 -4.19297e-23 0.14938)
    writing force and moment files.

yPlus yPlus1 write:
    writing field yPlus
    patch BOTTOM y+ : min = 9.04694e-06, max = 104.584, average = 17.448
    patch WALL y+ : min = 0.00181754, max = 20.5744, average = 4.09651
printing gMax(sumPhi)
0.0394311
printing gAverage(sumPhi)
0.00116102
printing gMax(sumPhi/mesh.V().field())
626.433
Courant Number mean: 0.00344448 max: 0.505188
Interface Courant Number mean: 7.68533e-05 max: 0.487617
deltaT = 0.00159979
Time = 2.00483

PIMPLE: iteration 1
smoothSolver:  Solving for alpha.water, Initial residual = 2.032e-05, Final residual = 1.11619e-10, No Iterations 2
Phase-1 volume fraction = 0.377059  Min(alpha.water) = -1.48117e-23  Max(alpha.water) = 1
MULES: Correcting alpha.water
Phase-1 volume fraction = 0.377059  Min(alpha.water) = -1.3876e-21  Max(alpha.water) = 1
Relaxing time: 0.01 s
DILUPBiCG:  Solving for Ux, Initial residual = 0.00198203, Final residual = 8.21122e-11, No Iterations 4
DILUPBiCG:  Solving for Uy, Initial residual = 0.0023329, Final residual = 1.90989e-10, No Iterations 4
GAMG:  Solving for p_rgh, Initial residual = 0.0565216, Final residual = 9.11908e-08, No Iterations 26
GAMG:  Solving for p_rgh, Initial residual = 0.000676327, Final residual = 8.41256e-08, No Iterations 7
time step continuity errors : sum local = 1.13491e-10, global = -2.83882e-11, cumulative = -3.6773e-10
GAMG:  Solving for p_rgh, Initial residual = 0.00114999, Final residual = 8.08467e-08, No Iterations 10
GAMG:  Solving for p_rgh, Initial residual = 0.000111025, Final residual = 5.34753e-08, No Iterations 6
time step continuity errors : sum local = 7.22204e-11, global = -1.90882e-11, cumulative = -3.86818e-10
GAMG:  Solving for p_rgh, Initial residual = 9.06256e-05, Final residual = 7.46043e-08, No Iterations 6
GAMG:  Solving for p_rgh, Initial residual = 3.28596e-05, Final residual = 7.41286e-09, No Iterations 10
time step continuity errors : sum local = 1.0011e-11, global = -4.2366e-12, cumulative = -3.91055e-10
PIMPLE: iteration 2
smoothSolver:  Solving for alpha.water, Initial residual = 1.60609e-05, Final residual = 7.29615e-11, No Iterations 2
Phase-1 volume fraction = 0.377059  Min(alpha.water) = -1.48092e-23  Max(alpha.water) = 1
MULES: Correcting alpha.water
Phase-1 volume fraction = 0.377059  Min(alpha.water) = -5.55039e-21  Max(alpha.water) = 1
Relaxing time: 0.02 s
DILUPBiCG:  Solving for Ux, Initial residual = 0.000389939, Final residual = 2.40063e-10, No Iterations 3
DILUPBiCG:  Solving for Uy, Initial residual = 0.000377029, Final residual = 3.53867e-10, No Iterations 3
GAMG:  Solving for p_rgh, Initial residual = 0.000991035, Final residual = 9.33508e-08, No Iterations 10
GAMG:  Solving for p_rgh, Initial residual = 4.36152e-05, Final residual = 6.64733e-08, No Iterations 5
time step continuity errors : sum local = 8.97042e-11, global = -3.30838e-12, cumulative = -3.94363e-10
GAMG:  Solving for p_rgh, Initial residual = 3.22097e-05, Final residual = 7.77309e-08, No Iterations 4
GAMG:  Solving for p_rgh, Initial residual = 8.25025e-06, Final residual = 7.51123e-08, No Iterations 3
time step continuity errors : sum local = 1.01358e-10, global = -1.253e-12, cumulative = -3.95616e-10
GAMG:  Solving for p_rgh, Initial residual = 5.22041e-06, Final residual = 9.88034e-08, No Iterations 2
GAMG:  Solving for p_rgh, Initial residual = 2.67221e-06, Final residual = 9.42076e-09, No Iterations 4
time step continuity errors : sum local = 1.27126e-11, global = -8.78229e-14, cumulative = -3.95704e-10
PIMPLE: iteration 3
smoothSolver:  Solving for alpha.water, Initial residual = 1.60488e-05, Final residual = 7.31238e-11, No Iterations 2
Phase-1 volume fraction = 0.377059  Min(alpha.water) = -1.48089e-23  Max(alpha.water) = 1
MULES: Correcting alpha.water
Phase-1 volume fraction = 0.377059  Min(alpha.water) = -4.44031e-20  Max(alpha.water) = 1
Relaxing time: 0.01 s
DILUPBiCG:  Solving for Ux, Initial residual = 0.000389894, Final residual = 2.42111e-10, No Iterations 3
DILUPBiCG:  Solving for Uy, Initial residual = 0.000376424, Final residual = 3.52931e-10, No Iterations 3
GAMG:  Solving for p_rgh, Initial residual = 0.000126125, Final residual = 6.5402e-08, No Iterations 8
GAMG:  Solving for p_rgh, Initial residual = 4.11005e-06, Final residual = 8.06306e-08, No Iterations 2
time step continuity errors : sum local = 1.08762e-10, global = -1.32948e-12, cumulative = -3.97034e-10
GAMG:  Solving for p_rgh, Initial residual = 6.0416e-06, Final residual = 8.31009e-08, No Iterations 2
GAMG:  Solving for p_rgh, Initial residual = 8.23387e-07, Final residual = 8.38767e-08, No Iterations 1
time step continuity errors : sum local = 1.1314e-10, global = -7.35577e-13, cumulative = -3.97769e-10
GAMG:  Solving for p_rgh, Initial residual = 5.46695e-07, Final residual = 5.48991e-08, No Iterations 1
GAMG:  Solving for p_rgh, Initial residual = 2.44561e-07, Final residual = 9.56883e-09, No Iterations 5
time step continuity errors : sum local = 1.29073e-11, global = -2.82871e-12, cumulative = -4.00598e-10
PIMPLE: converged in 3 iterations
ExecutionTime = 6.49 s  ClockTime = 62 s

forces forces write:
    Sum of forces
        Total    : (0.668867 0.515718 1.46618e-24)
        Pressure : (0.668904 0.51093 0)
        Viscous  : (-3.68433e-05 0.00478862 1.46618e-24)
    Sum of moments
        Total    : (2.76319e-24 -4.38909e-23 15.1883)
        Pressure : (0 0 15.0404)
        Viscous  : (2.76319e-24 -4.38909e-23 0.1479)
    writing force and moment files.

yPlus yPlus1 write:
    writing field yPlus
    patch BOTTOM y+ : min = 2.70284e-06, max = 104.598, average = 17.4527
    patch WALL y+ : min = 0.00626398, max = 20.7165, average = 4.0936
printing gMax(sumPhi)
0.0394319
printing gAverage(sumPhi)
0.00116215
printing gMax(sumPhi/mesh.V().field())
630.104
Courant Number mean: 0.0034198 max: 0.504017
Interface Courant Number mean: 7.63619e-05 max: 0.488935
deltaT = 0.00158678
Time = 2.00641

PIMPLE: iteration 1
smoothSolver:  Solving for alpha.water, Initial residual = 2.01743e-05, Final residual = 1.02076e-10, No Iterations 2
Phase-1 volume fraction = 0.37706  Min(alpha.water) = -1.18207e-23  Max(alpha.water) = 1
MULES: Correcting alpha.water
Phase-1 volume fraction = 0.37706  Min(alpha.water) = -3.44079e-22  Max(alpha.water) = 1
Relaxing time: 0.02 s
DILUPBiCG:  Solving for Ux, Initial residual = 0.00189936, Final residual = 9.07376e-11, No Iterations 4
DILUPBiCG:  Solving for Uy, Initial residual = 0.00223283, Final residual = 1.88868e-10, No Iterations 4
GAMG:  Solving for p_rgh, Initial residual = 0.0562359, Final residual = 9.81536e-08, No Iterations 26
GAMG:  Solving for p_rgh, Initial residual = 0.000679263, Final residual = 7.49819e-08, No Iterations 8
time step continuity errors : sum local = 9.97021e-11, global = 2.97686e-11, cumulative = -3.70829e-10
GAMG:  Solving for p_rgh, Initial residual = 0.00112801, Final residual = 6.55729e-08, No Iterations 10
GAMG:  Solving for p_rgh, Initial residual = 0.000115199, Final residual = 5.39141e-08, No Iterations 6
time step continuity errors : sum local = 7.17561e-11, global = -1.74541e-11, cumulative = -3.88283e-10
GAMG:  Solving for p_rgh, Initial residual = 9.09066e-05, Final residual = 9.60352e-08, No Iterations 5
GAMG:  Solving for p_rgh, Initial residual = 3.43113e-05, Final residual = 8.97298e-09, No Iterations 9
time step continuity errors : sum local = 1.19417e-11, global = -6.09384e-12, cumulative = -3.94377e-10
PIMPLE: iteration 2
smoothSolver:  Solving for alpha.water, Initial residual = 1.59822e-05, Final residual = 7.50165e-11, No Iterations 2
Phase-1 volume fraction = 0.37706  Min(alpha.water) = -1.18194e-23  Max(alpha.water) = 1
MULES: Correcting alpha.water
Phase-1 volume fraction = 0.37706  Min(alpha.water) = -4.30099e-23  Max(alpha.water) = 1
Relaxing time: 0.01 s
DILUPBiCG:  Solving for Ux, Initial residual = 0.000390024, Final residual = 2.41851e-10, No Iterations 3
DILUPBiCG:  Solving for Uy, Initial residual = 0.000382138, Final residual = 3.5453e-10, No Iterations 3
GAMG:  Solving for p_rgh, Initial residual = 0.000990991, Final residual = 8.40411e-08, No Iterations 9
GAMG:  Solving for p_rgh, Initial residual = 4.60498e-05, Final residual = 6.24348e-08, No Iterations 5
time step continuity errors : sum local = 8.28051e-11, global = -1.62021e-13, cumulative = -3.94539e-10
GAMG:  Solving for p_rgh, Initial residual = 3.39363e-05, Final residual = 7.24549e-08, No Iterations 4
GAMG:  Solving for p_rgh, Initial residual = 9.30827e-06, Final residual = 7.27161e-08, No Iterations 3
time step continuity errors : sum local = 9.64386e-11, global = -1.43366e-12, cumulative = -3.95973e-10
GAMG:  Solving for p_rgh, Initial residual = 5.65461e-06, Final residual = 4.05524e-08, No Iterations 3
GAMG:  Solving for p_rgh, Initial residual = 2.99116e-06, Final residual = 4.75163e-09, No Iterations 5
time step continuity errors : sum local = 6.30176e-12, global = -9.69184e-14, cumulative = -3.9607e-10
PIMPLE: iteration 3
smoothSolver:  Solving for alpha.water, Initial residual = 1.59704e-05, Final residual = 7.51782e-11, No Iterations 2
Phase-1 volume fraction = 0.37706  Min(alpha.water) = -1.18197e-23  Max(alpha.water) = 1
MULES: Correcting alpha.water
Phase-1 volume fraction = 0.37706  Min(alpha.water) = -2.2021e-20  Max(alpha.water) = 1
Relaxing time: 0.01 s
DILUPBiCG:  Solving for Ux, Initial residual = 0.000389953, Final residual = 2.43838e-10, No Iterations 3
DILUPBiCG:  Solving for Uy, Initial residual = 0.000381685, Final residual = 3.56841e-10, No Iterations 3
GAMG:  Solving for p_rgh, Initial residual = 0.000124826, Final residual = 9.96669e-08, No Iterations 6
GAMG:  Solving for p_rgh, Initial residual = 4.57639e-06, Final residual = 9.54129e-08, No Iterations 2
time step continuity errors : sum local = 1.26565e-10, global = 4.51962e-13, cumulative = -3.95618e-10
GAMG:  Solving for p_rgh, Initial residual = 6.05097e-06, Final residual = 8.69499e-08, No Iterations 2
GAMG:  Solving for p_rgh, Initial residual = 1.02529e-06, Final residual = 9.75334e-08, No Iterations 1
time step continuity errors : sum local = 1.29377e-10, global = 7.23726e-14, cumulative = -3.95545e-10
GAMG:  Solving for p_rgh, Initial residual = 6.70209e-07, Final residual = 6.69213e-08, No Iterations 1
GAMG:  Solving for p_rgh, Initial residual = 3.08717e-07, Final residual = 9.98642e-09, No Iterations 4
time step continuity errors : sum local = 1.32469e-11, global = -3.0757e-13, cumulative = -3.95853e-10
PIMPLE: converged in 3 iterations
ExecutionTime = 7.08 s  ClockTime = 63 s

forces forces write:
    Sum of forces
        Total    : (0.652954 0.394016 1.53834e-24)
        Pressure : (0.652995 0.389259 0)
        Viscous  : (-4.14036e-05 0.00475689 1.53834e-24)
    Sum of moments
        Total    : (2.89985e-24 -4.61241e-23 11.4918)
        Pressure : (0 0 11.3448)
        Viscous  : (2.89985e-24 -4.61241e-23 0.146949)
    writing force and moment files.

yPlus yPlus1 write:
    writing field yPlus
    patch BOTTOM y+ : min = 6.79036e-06, max = 104.611, average = 17.4568
    patch WALL y+ : min = 0.00511107, max = 20.8761, average = 4.09425
printing gMax(sumPhi)
0.0394303
printing gAverage(sumPhi)
0.00116331
printing gMax(sumPhi/mesh.V().field())
633.493
Courant Number mean: 0.00339539 max: 0.502608
Interface Courant Number mean: 7.67643e-05 max: 0.488465
deltaT = 0.00157388
Time = 2.00799

PIMPLE: iteration 1
smoothSolver:  Solving for alpha.water, Initial residual = 2.00246e-05, Final residual = 9.31953e-11, No Iterations 2
Phase-1 volume fraction = 0.37706  Min(alpha.water) = -9.45154e-24  Max(alpha.water) = 1
MULES: Correcting alpha.water
Phase-1 volume fraction = 0.37706  Min(alpha.water) = -1.0921e-20  Max(alpha.water) = 1
Relaxing time: 0.01 s
DILUPBiCG:  Solving for Ux, Initial residual = 0.0018889, Final residual = 1.1429e-10, No Iterations 4
DILUPBiCG:  Solving for Uy, Initial residual = 0.00222195, Final residual = 1.40789e-10, No Iterations 4
GAMG:  Solving for p_rgh, Initial residual = 0.0552447, Final residual = 9.85075e-08, No Iterations 29
GAMG:  Solving for p_rgh, Initial residual = 0.00068794, Final residual = 9.81125e-08, No Iterations 8
time step continuity errors : sum local = 1.28035e-10, global = -4.28115e-11, cumulative = -4.38665e-10
GAMG:  Solving for p_rgh, Initial residual = 0.00108888, Final residual = 8.38884e-08, No Iterations 10
GAMG:  Solving for p_rgh, Initial residual = 0.000113963, Final residual = 5.77955e-08, No Iterations 6
time step continuity errors : sum local = 7.55e-11, global = -1.48899e-11, cumulative = -4.53554e-10
GAMG:  Solving for p_rgh, Initial residual = 8.80566e-05, Final residual = 4.50005e-08, No Iterations 6
GAMG:  Solving for p_rgh, Initial residual = 3.32313e-05, Final residual = 8.42461e-09, No Iterations 8
time step continuity errors : sum local = 1.10048e-11, global = 3.46695e-12, cumulative = -4.50088e-10
PIMPLE: iteration 2
smoothSolver:  Solving for alpha.water, Initial residual = 1.61917e-05, Final residual = 7.77739e-11, No Iterations 2
Phase-1 volume fraction = 0.37706  Min(alpha.water) = -9.45037e-24  Max(alpha.water) = 1
MULES: Correcting alpha.water
Phase-1 volume fraction = 0.37706  Min(alpha.water) = -1.26981e-21  Max(alpha.water) = 1
Relaxing time: 0.01 s
DILUPBiCG:  Solving for Ux, Initial residual = 0.000386447, Final residual = 2.42199e-10, No Iterations 3
DILUPBiCG:  Solving for Uy, Initial residual = 0.000387499, Final residual = 3.61875e-10, No Iterations 3
GAMG:  Solving for p_rgh, Initial residual = 0.00098643, Final residual = 7.94228e-08, No Iterations 9
GAMG:  Solving for p_rgh, Initial residual = 4.59908e-05, Final residual = 6.12905e-08, No Iterations 5
time step continuity errors : sum local = 7.99003e-11, global = -3.48134e-13, cumulative = -4.50436e-10
GAMG:  Solving for p_rgh, Initial residual = 3.24685e-05, Final residual = 7.43733e-08, No Iterations 4
GAMG:  Solving for p_rgh, Initial residual = 8.51815e-06, Final residual = 7.5219e-08, No Iterations 3
time step continuity errors : sum local = 9.80556e-11, global = -2.87834e-12, cumulative = -4.53314e-10
GAMG:  Solving for p_rgh, Initial residual = 5.22869e-06, Final residual = 4.3064e-08, No Iterations 3
GAMG:  Solving for p_rgh, Initial residual = 2.74947e-06, Final residual = 8.3327e-09, No Iterations 5
time step continuity errors : sum local = 1.08625e-11, global = 3.27594e-13, cumulative = -4.52986e-10
PIMPLE: iteration 3
smoothSolver:  Solving for alpha.water, Initial residual = 1.61816e-05, Final residual = 7.79228e-11, No Iterations 2
Phase-1 volume fraction = 0.37706  Min(alpha.water) = -9.45068e-24  Max(alpha.water) = 1
MULES: Correcting alpha.water
Phase-1 volume fraction = 0.37706  Min(alpha.water) = -2.1842e-20  Max(alpha.water) = 1
Relaxing time: 0.01 s
DILUPBiCG:  Solving for Ux, Initial residual = 0.000386508, Final residual = 2.35843e-10, No Iterations 3
DILUPBiCG:  Solving for Uy, Initial residual = 0.000386984, Final residual = 3.64601e-10, No Iterations 3
GAMG:  Solving for p_rgh, Initial residual = 0.000110063, Final residual = 6.50054e-08, No Iterations 7
GAMG:  Solving for p_rgh, Initial residual = 4.22575e-06, Final residual = 8.16155e-08, No Iterations 2
time step continuity errors : sum local = 1.0639e-10, global = -8.13544e-13, cumulative = -4.538e-10
GAMG:  Solving for p_rgh, Initial residual = 5.44899e-06, Final residual = 9.98048e-08, No Iterations 2
GAMG:  Solving for p_rgh, Initial residual = 8.89989e-07, Final residual = 9.3711e-08, No Iterations 1
time step continuity errors : sum local = 1.22157e-10, global = -1.29048e-12, cumulative = -4.5509e-10
GAMG:  Solving for p_rgh, Initial residual = 5.75503e-07, Final residual = 6.0136e-08, No Iterations 1
GAMG:  Solving for p_rgh, Initial residual = 2.55133e-07, Final residual = 7.12949e-09, No Iterations 4
time step continuity errors : sum local = 9.29363e-12, global = -6.61159e-15, cumulative = -4.55097e-10
PIMPLE: converged in 3 iterations
ExecutionTime = 7.68 s  ClockTime = 63 s

forces forces write:
    Sum of forces
        Total    : (0.651103 0.31255 1.64595e-24)
        Pressure : (0.651149 0.307836 0)
        Viscous  : (-4.69682e-05 0.00471452 1.64595e-24)
    Sum of moments
        Total    : (3.10403e-24 -4.9436e-23 9.00903)
        Pressure : (0 0 8.86337)
        Viscous  : (3.10403e-24 -4.9436e-23 0.14566)
    writing force and moment files.

yPlus yPlus1 write:
    writing field yPlus
    patch BOTTOM y+ : min = 8.04165e-06, max = 104.626, average = 17.4615
    patch WALL y+ : min = 0.00369772, max = 20.9858, average = 4.09736
printing gMax(sumPhi)
0.039436
printing gAverage(sumPhi)
0.00116459
printing gMax(sumPhi/mesh.V().field())
637.343
Courant Number mean: 0.00337147 max: 0.501551
Interface Courant Number mean: 7.57674e-05 max: 0.486802
deltaT = 0.00157388
Time = 2.00956

PIMPLE: iteration 1
smoothSolver:  Solving for alpha.water, Initial residual = 2.00405e-05, Final residual = 8.70927e-11, No Iterations 2
Phase-1 volume fraction = 0.37706  Min(alpha.water) = -7.5662e-24  Max(alpha.water) = 1
MULES: Correcting alpha.water
Phase-1 volume fraction = 0.37706  Min(alpha.water) = -6.82563e-22  Max(alpha.water) = 1
Relaxing time: 0.01 s
DILUPBiCG:  Solving for Ux, Initial residual = 0.00188329, Final residual = 1.35997e-10, No Iterations 4
DILUPBiCG:  Solving for Uy, Initial residual = 0.00221877, Final residual = 9.16119e-11, No Iterations 4
GAMG:  Solving for p_rgh, Initial residual = 0.0549765, Final residual = 9.34117e-08, No Iterations 22
GAMG:  Solving for p_rgh, Initial residual = 0.000688691, Final residual = 6.88076e-08, No Iterations 7
time step continuity errors : sum local = 8.96603e-11, global = 2.17209e-11, cumulative = -4.33376e-10
GAMG:  Solving for p_rgh, Initial residual = 0.00107611, Final residual = 8.55233e-08, No Iterations 9
GAMG:  Solving for p_rgh, Initial residual = 0.000111828, Final residual = 5.95836e-08, No Iterations 6
time step continuity errors : sum local = 7.77238e-11, global = 1.47128e-11, cumulative = -4.18663e-10
GAMG:  Solving for p_rgh, Initial residual = 8.71722e-05, Final residual = 4.47141e-08, No Iterations 6
GAMG:  Solving for p_rgh, Initial residual = 3.26619e-05, Final residual = 9.62718e-09, No Iterations 7
time step continuity errors : sum local = 1.25576e-11, global = 2.13582e-12, cumulative = -4.16528e-10
PIMPLE: iteration 2
smoothSolver:  Solving for alpha.water, Initial residual = 1.64876e-05, Final residual = 8.29724e-11, No Iterations 2
Phase-1 volume fraction = 0.37706  Min(alpha.water) = -7.23226e-23  Max(alpha.water) = 1
MULES: Correcting alpha.water
Phase-1 volume fraction = 0.37706  Min(alpha.water) = -3.79109e-22  Max(alpha.water) = 1
Relaxing time: 0.01 s
DILUPBiCG:  Solving for Ux, Initial residual = 0.000385726, Final residual = 2.39529e-10, No Iterations 3
DILUPBiCG:  Solving for Uy, Initial residual = 0.000389593, Final residual = 3.50554e-10, No Iterations 3
GAMG:  Solving for p_rgh, Initial residual = 0.000998558, Final residual = 7.92255e-08, No Iterations 9
GAMG:  Solving for p_rgh, Initial residual = 4.69791e-05, Final residual = 6.12594e-08, No Iterations 5
time step continuity errors : sum local = 7.98002e-11, global = 3.89274e-13, cumulative = -4.16138e-10
GAMG:  Solving for p_rgh, Initial residual = 3.47205e-05, Final residual = 7.49792e-08, No Iterations 4
GAMG:  Solving for p_rgh, Initial residual = 8.77334e-06, Final residual = 7.75222e-08, No Iterations 3
time step continuity errors : sum local = 1.00982e-10, global = -7.0601e-13, cumulative = -4.16844e-10
GAMG:  Solving for p_rgh, Initial residual = 5.61319e-06, Final residual = 4.3468e-08, No Iterations 3
GAMG:  Solving for p_rgh, Initial residual = 2.88917e-06, Final residual = 6.38026e-09, No Iterations 5
time step continuity errors : sum local = 8.31102e-12, global = 5.65518e-14, cumulative = -4.16788e-10
PIMPLE: iteration 3
smoothSolver:  Solving for alpha.water, Initial residual = 1.64761e-05, Final residual = 8.31003e-11, No Iterations 2
Phase-1 volume fraction = 0.37706  Min(alpha.water) = -7.56431e-24  Max(alpha.water) = 1
MULES: Correcting alpha.water
Phase-1 volume fraction = 0.37706  Min(alpha.water) = -1.0921e-20  Max(alpha.water) = 1
Relaxing time: 0.01 s
DILUPBiCG:  Solving for Ux, Initial residual = 0.00038584, Final residual = 2.34817e-10, No Iterations 3
DILUPBiCG:  Solving for Uy, Initial residual = 0.00038915, Final residual = 3.13592e-10, No Iterations 3
GAMG:  Solving for p_rgh, Initial residual = 0.000117208, Final residual = 9.71424e-08, No Iterations 8
GAMG:  Solving for p_rgh, Initial residual = 4.40428e-06, Final residual = 9.99626e-08, No Iterations 2
time step continuity errors : sum local = 1.30148e-10, global = 6.19914e-12, cumulative = -4.10589e-10
GAMG:  Solving for p_rgh, Initial residual = 6.42735e-06, Final residual = 4.94395e-08, No Iterations 3
GAMG:  Solving for p_rgh, Initial residual = 9.41759e-07, Final residual = 8.63366e-08, No Iterations 1
time step continuity errors : sum local = 1.12407e-10, global = 1.3292e-12, cumulative = -4.09259e-10
GAMG:  Solving for p_rgh, Initial residual = 6.54331e-07, Final residual = 5.17945e-08, No Iterations 1
GAMG:  Solving for p_rgh, Initial residual = 2.63231e-07, Final residual = 8.58422e-09, No Iterations 5
time step continuity errors : sum local = 1.11763e-11, global = 3.03958e-12, cumulative = -4.0622e-10
PIMPLE: converged in 3 iterations
ExecutionTime = 8.23 s  ClockTime = 64 s

forces forces write:
    Sum of forces
        Total    : (0.657626 0.365259 1.74945e-24)
        Pressure : (0.657673 0.360601 0)
        Viscous  : (-4.72543e-05 0.00465777 1.74945e-24)
    Sum of moments
        Total    : (3.29949e-24 -5.26062e-23 10.6885)
        Pressure : (0 0 10.5446)
        Viscous  : (3.29949e-24 -5.26062e-23 0.143912)
    writing force and moment files.

yPlus yPlus1 write:
    writing field yPlus
    patch BOTTOM y+ : min = 7.33394e-06, max = 104.641, average = 17.4661
    patch WALL y+ : min = 0.00689211, max = 20.9453, average = 4.09764
printing gMax(sumPhi)
0.039443
printing gAverage(sumPhi)
0.0011657
printing gMax(sumPhi/mesh.V().field())
645.183
Courant Number mean: 0.00337469 max: 0.507721
Interface Courant Number mean: 7.57154e-05 max: 0.488331
deltaT = 0.00154829
Time = 2.01111

PIMPLE: iteration 1
smoothSolver:  Solving for alpha.water, Initial residual = 1.97322e-05, Final residual = 7.65687e-11, No Iterations 2
Phase-1 volume fraction = 0.377061  Min(alpha.water) = -6.06408e-24  Max(alpha.water) = 1
MULES: Correcting alpha.water
Phase-1 volume fraction = 0.377061  Min(alpha.water) = -5.37172e-21  Max(alpha.water) = 1
Relaxing time: 0.01 s
DILUPBiCG:  Solving for Ux, Initial residual = 0.00185186, Final residual = 1.34612e-10, No Iterations 4
DILUPBiCG:  Solving for Uy, Initial residual = 0.00218255, Final residual = 6.2544e-11, No Iterations 4
GAMG:  Solving for p_rgh, Initial residual = 0.0541953, Final residual = 8.43895e-08, No Iterations 31
GAMG:  Solving for p_rgh, Initial residual = 0.000658984, Final residual = 9.67475e-08, No Iterations 7
time step continuity errors : sum local = 1.23217e-10, global = 5.22701e-11, cumulative = -3.5395e-10
GAMG:  Solving for p_rgh, Initial residual = 0.00107147, Final residual = 8.89707e-08, No Iterations 9
GAMG:  Solving for p_rgh, Initial residual = 0.000104485, Final residual = 4.18882e-08, No Iterations 6
time step continuity errors : sum local = 5.34031e-11, global = 2.16311e-12, cumulative = -3.51787e-10
GAMG:  Solving for p_rgh, Initial residual = 8.33684e-05, Final residual = 9.11639e-08, No Iterations 5
GAMG:  Solving for p_rgh, Initial residual = 3.04162e-05, Final residual = 9.34621e-09, No Iterations 7
time step continuity errors : sum local = 1.19146e-11, global = 3.22959e-13, cumulative = -3.51464e-10
PIMPLE: iteration 2
smoothSolver:  Solving for alpha.water, Initial residual = 1.64204e-05, Final residual = 8.20426e-11, No Iterations 2
Phase-1 volume fraction = 0.377061  Min(alpha.water) = -6.06298e-24  Max(alpha.water) = 1
MULES: Correcting alpha.water
Phase-1 volume fraction = 0.377061  Min(alpha.water) = -1.34293e-21  Max(alpha.water) = 1
Relaxing time: 0.01 s
DILUPBiCG:  Solving for Ux, Initial residual = 0.000380983, Final residual = 2.23961e-10, No Iterations 3
DILUPBiCG:  Solving for Uy, Initial residual = 0.000390947, Final residual = 3.24233e-10, No Iterations 3
GAMG:  Solving for p_rgh, Initial residual = 0.00104313, Final residual = 8.99713e-08, No Iterations 10
GAMG:  Solving for p_rgh, Initial residual = 4.54463e-05, Final residual = 9.89646e-08, No Iterations 4
time step continuity errors : sum local = 1.26049e-10, global = -1.44843e-12, cumulative = -3.52912e-10
GAMG:  Solving for p_rgh, Initial residual = 3.98324e-05, Final residual = 7.27208e-08, No Iterations 4
GAMG:  Solving for p_rgh, Initial residual = 8.21739e-06, Final residual = 6.86599e-08, No Iterations 3
time step continuity errors : sum local = 8.74492e-11, global = -5.10097e-13, cumulative = -3.53422e-10
GAMG:  Solving for p_rgh, Initial residual = 5.6147e-06, Final residual = 4.00564e-08, No Iterations 3
GAMG:  Solving for p_rgh, Initial residual = 2.76713e-06, Final residual = 6.33705e-09, No Iterations 5
time step continuity errors : sum local = 8.07118e-12, global = -8.22021e-14, cumulative = -3.53504e-10
PIMPLE: iteration 3
smoothSolver:  Solving for alpha.water, Initial residual = 1.64075e-05, Final residual = 8.2173e-11, No Iterations 2
Phase-1 volume fraction = 0.377061  Min(alpha.water) = -6.0625e-24  Max(alpha.water) = 1
MULES: Correcting alpha.water
Phase-1 volume fraction = 0.377061  Min(alpha.water) = -1.34293e-21  Max(alpha.water) = 1
Relaxing time: 0.01 s
DILUPBiCG:  Solving for Ux, Initial residual = 0.000381065, Final residual = 2.21135e-10, No Iterations 3
DILUPBiCG:  Solving for Uy, Initial residual = 0.000390374, Final residual = 3.35739e-10, No Iterations 3
GAMG:  Solving for p_rgh, Initial residual = 0.000121663, Final residual = 9.13399e-08, No Iterations 6
GAMG:  Solving for p_rgh, Initial residual = 4.05213e-06, Final residual = 9.63456e-08, No Iterations 2
time step continuity errors : sum local = 1.22712e-10, global = 5.44564e-13, cumulative = -3.5296e-10
GAMG:  Solving for p_rgh, Initial residual = 7.15299e-06, Final residual = 5.04344e-08, No Iterations 3
GAMG:  Solving for p_rgh, Initial residual = 8.24228e-07, Final residual = 8.1232e-08, No Iterations 1
time step continuity errors : sum local = 1.03462e-10, global = -5.46692e-13, cumulative = -3.53506e-10
GAMG:  Solving for p_rgh, Initial residual = 6.38679e-07, Final residual = 5.06397e-08, No Iterations 1
GAMG:  Solving for p_rgh, Initial residual = 2.40543e-07, Final residual = 6.57226e-09, No Iterations 4
time step continuity errors : sum local = 8.37083e-12, global = 8.17448e-14, cumulative = -3.53425e-10
PIMPLE: converged in 3 iterations
ExecutionTime = 8.77 s  ClockTime = 64 s

forces forces write:
    Sum of forces
        Total    : (0.661744 0.455756 1.84229e-24)
        Pressure : (0.661789 0.451163 0)
        Viscous  : (-4.52034e-05 0.00459328 1.84229e-24)
    Sum of moments
        Total    : (3.47445e-24 -5.54354e-23 13.5051)
        Pressure : (0 0 13.3632)
        Viscous  : (3.47445e-24 -5.54354e-23 0.141917)
    writing force and moment files.

yPlus yPlus1 write:
    writing field yPlus
    patch BOTTOM y+ : min = 1.8904e-05, max = 104.656, average = 17.4708
    patch WALL y+ : min = 0.00575547, max = 20.838, average = 4.09523
printing gMax(sumPhi)
0.0394507
printing gAverage(sumPhi)
0.00116665
printing gMax(sumPhi/mesh.V().field())
656.348
Courant Number mean: 0.00332253 max: 0.508109
Interface Courant Number mean: 7.38472e-05 max: 0.480016
deltaT = 0.00152332
Time = 2.01263

PIMPLE: iteration 1
smoothSolver:  Solving for alpha.water, Initial residual = 1.94286e-05, Final residual = 6.70664e-11, No Iterations 2
Phase-1 volume fraction = 0.377061  Min(alpha.water) = -4.87118e-24  Max(alpha.water) = 1
MULES: Correcting alpha.water
Phase-1 volume fraction = 0.377061  Min(alpha.water) = -3.30317e-22  Max(alpha.water) = 1
Relaxing time: 0.02 s
DILUPBiCG:  Solving for Ux, Initial residual = 0.00182072, Final residual = 1.19769e-10, No Iterations 4
DILUPBiCG:  Solving for Uy, Initial residual = 0.00214864, Final residual = 1.75834e-10, No Iterations 4
GAMG:  Solving for p_rgh, Initial residual = 0.052528, Final residual = 8.5146e-08, No Iterations 32
GAMG:  Solving for p_rgh, Initial residual = 0.000641033, Final residual = 7.37887e-08, No Iterations 7
time step continuity errors : sum local = 9.19268e-11, global = -3.485e-11, cumulative = -3.88275e-10
GAMG:  Solving for p_rgh, Initial residual = 0.00101425, Final residual = 9.09406e-08, No Iterations 9
GAMG:  Solving for p_rgh, Initial residual = 0.000101768, Final residual = 9.93888e-08, No Iterations 5
time step continuity errors : sum local = 1.23947e-10, global = -2.7951e-12, cumulative = -3.9107e-10
GAMG:  Solving for p_rgh, Initial residual = 8.05108e-05, Final residual = 8.69926e-08, No Iterations 5
GAMG:  Solving for p_rgh, Initial residual = 2.98964e-05, Final residual = 9.55054e-09, No Iterations 7
time step continuity errors : sum local = 1.19097e-11, global = 7.78086e-15, cumulative = -3.91062e-10
PIMPLE: iteration 2
smoothSolver:  Solving for alpha.water, Initial residual = 1.62706e-05, Final residual = 7.84941e-11, No Iterations 2
Phase-1 volume fraction = 0.377061  Min(alpha.water) = -4.8714e-24  Max(alpha.water) = 1
MULES: Correcting alpha.water
Phase-1 volume fraction = 0.377061  Min(alpha.water) = -1.53022e-23  Max(alpha.water) = 1
Relaxing time: 0.01 s
DILUPBiCG:  Solving for Ux, Initial residual = 0.000375962, Final residual = 2.13944e-10, No Iterations 3
DILUPBiCG:  Solving for Uy, Initial residual = 0.000393393, Final residual = 3.33855e-10, No Iterations 3
GAMG:  Solving for p_rgh, Initial residual = 0.000942194, Final residual = 7.77085e-08, No Iterations 9
GAMG:  Solving for p_rgh, Initial residual = 4.42637e-05, Final residual = 9.31067e-08, No Iterations 4
time step continuity errors : sum local = 1.1568e-10, global = -1.63258e-13, cumulative = -3.91225e-10
GAMG:  Solving for p_rgh, Initial residual = 3.28483e-05, Final residual = 6.21478e-08, No Iterations 4
GAMG:  Solving for p_rgh, Initial residual = 7.90014e-06, Final residual = 6.0781e-08, No Iterations 3
time step continuity errors : sum local = 7.55148e-11, global = 2.16936e-14, cumulative = -3.91204e-10
GAMG:  Solving for p_rgh, Initial residual = 5.00275e-06, Final residual = 9.42144e-08, No Iterations 2
GAMG:  Solving for p_rgh, Initial residual = 2.58162e-06, Final residual = 7.64095e-09, No Iterations 4
time step continuity errors : sum local = 9.49313e-12, global = -1.87905e-13, cumulative = -3.91392e-10
PIMPLE: iteration 3
smoothSolver:  Solving for alpha.water, Initial residual = 1.62576e-05, Final residual = 7.86664e-11, No Iterations 2
Phase-1 volume fraction = 0.377061  Min(alpha.water) = -4.87204e-24  Max(alpha.water) = 1
MULES: Correcting alpha.water
Phase-1 volume fraction = 0.377061  Min(alpha.water) = -1.05701e-20  Max(alpha.water) = 1
Relaxing time: 0 s
DILUPBiCG:  Solving for Ux, Initial residual = 0.000375906, Final residual = 2.08977e-10, No Iterations 3
DILUPBiCG:  Solving for Uy, Initial residual = 0.000392892, Final residual = 3.35402e-10, No Iterations 3
GAMG:  Solving for p_rgh, Initial residual = 0.000102632, Final residual = 6.58899e-08, No Iterations 7
GAMG:  Solving for p_rgh, Initial residual = 4.35122e-06, Final residual = 8.57917e-08, No Iterations 2
time step continuity errors : sum local = 1.06555e-10, global = 1.09598e-12, cumulative = -3.90296e-10
GAMG:  Solving for p_rgh, Initial residual = 5.50522e-06, Final residual = 7.48165e-08, No Iterations 2
GAMG:  Solving for p_rgh, Initial residual = 8.57578e-07, Final residual = 7.81757e-08, No Iterations 1
time step continuity errors : sum local = 9.7096e-11, global = 8.84166e-13, cumulative = -3.89411e-10
GAMG:  Solving for p_rgh, Initial residual = 5.64363e-07, Final residual = 5.13127e-08, No Iterations 1
GAMG:  Solving for p_rgh, Initial residual = 2.482e-07, Final residual = 9.07549e-09, No Iterations 4
time step continuity errors : sum local = 1.1272e-11, global = 6.21319e-13, cumulative = -3.8879e-10
PIMPLE: converged in 3 iterations
ExecutionTime = 9.3 s  ClockTime = 65 s

forces forces write:
    Sum of forces
        Total    : (0.669829 0.385274 1.96166e-24)
        Pressure : (0.669869 0.380756 0)
        Viscous  : (-3.9951e-05 0.00451875 1.96166e-24)
    Sum of moments
        Total    : (3.69954e-24 -5.90842e-23 11.3368)
        Pressure : (0 0 11.1972)
        Viscous  : (3.69954e-24 -5.90842e-23 0.139597)
    writing force and moment files.

yPlus yPlus1 write:
    writing field yPlus
    patch BOTTOM y+ : min = 7.58617e-06, max = 104.67, average = 17.4755
    patch WALL y+ : min = 0.00355205, max = 20.7907, average = 4.0931
printing gMax(sumPhi)
0.039457
printing gAverage(sumPhi)
0.00116761
printing gMax(sumPhi/mesh.V().field())
670.175
Courant Number mean: 0.00327163 max: 0.510445
Interface Courant Number mean: 7.25631e-05 max: 0.470704
deltaT = 0.00148705
Time = 2.01412

PIMPLE: iteration 1
smoothSolver:  Solving for alpha.water, Initial residual = 1.89889e-05, Final residual = 5.67887e-11, No Iterations 2
Phase-1 volume fraction = 0.377062  Min(alpha.water) = -3.92743e-24  Max(alpha.water) = 1
MULES: Correcting alpha.water
Phase-1 volume fraction = 0.377062  Min(alpha.water) = -4.03066e-23  Max(alpha.water) = 1
Relaxing time: 0.01 s
DILUPBiCG:  Solving for Ux, Initial residual = 0.00177804, Final residual = 1.09229e-10, No Iterations 4
DILUPBiCG:  Solving for Uy, Initial residual = 0.00209411, Final residual = 2.22533e-11, No Iterations 5
GAMG:  Solving for p_rgh, Initial residual = 0.0512392, Final residual = 8.47851e-08, No Iterations 34
GAMG:  Solving for p_rgh, Initial residual = 0.000620095, Final residual = 6.04881e-08, No Iterations 7
time step continuity errors : sum local = 7.27276e-11, global = -1.82947e-11, cumulative = -4.07085e-10
GAMG:  Solving for p_rgh, Initial residual = 0.0009788, Final residual = 9.53672e-08, No Iterations 9
GAMG:  Solving for p_rgh, Initial residual = 9.75286e-05, Final residual = 4.3041e-08, No Iterations 6
time step continuity errors : sum local = 5.17964e-11, global = 2.06537e-12, cumulative = -4.05019e-10
GAMG:  Solving for p_rgh, Initial residual = 7.66682e-05, Final residual = 8.86784e-08, No Iterations 5
GAMG:  Solving for p_rgh, Initial residual = 2.88759e-05, Final residual = 6.02415e-09, No Iterations 8
time step continuity errors : sum local = 7.24916e-12, global = -5.66013e-14, cumulative = -4.05076e-10
PIMPLE: iteration 2
smoothSolver:  Solving for alpha.water, Initial residual = 1.58803e-05, Final residual = 6.76048e-11, No Iterations 2
Phase-1 volume fraction = 0.377062  Min(alpha.water) = -3.92841e-24  Max(alpha.water) = 1
MULES: Correcting alpha.water
Phase-1 volume fraction = 0.377062  Min(alpha.water) = -1.03185e-20  Max(alpha.water) = 1
Relaxing time: 0.01 s
DILUPBiCG:  Solving for Ux, Initial residual = 0.000369378, Final residual = 2.02859e-10, No Iterations 3
DILUPBiCG:  Solving for Uy, Initial residual = 0.000390467, Final residual = 2.86005e-10, No Iterations 3
GAMG:  Solving for p_rgh, Initial residual = 0.000885036, Final residual = 9.5343e-08, No Iterations 9
GAMG:  Solving for p_rgh, Initial residual = 4.207e-05, Final residual = 6.35875e-08, No Iterations 5
time step continuity errors : sum local = 7.61893e-11, global = 1.58838e-14, cumulative = -4.0506e-10
GAMG:  Solving for p_rgh, Initial residual = 2.96972e-05, Final residual = 6.51447e-08, No Iterations 4
GAMG:  Solving for p_rgh, Initial residual = 7.79152e-06, Final residual = 6.40757e-08, No Iterations 3
time step continuity errors : sum local = 7.67713e-11, global = 5.74359e-14, cumulative = -4.05003e-10
GAMG:  Solving for p_rgh, Initial residual = 4.88193e-06, Final residual = 9.52616e-08, No Iterations 2
GAMG:  Solving for p_rgh, Initial residual = 2.58401e-06, Final residual = 9.48257e-09, No Iterations 4
time step continuity errors : sum local = 1.13614e-11, global = 8.09141e-15, cumulative = -4.04995e-10
PIMPLE: iteration 3
smoothSolver:  Solving for alpha.water, Initial residual = 1.58681e-05, Final residual = 6.77348e-11, No Iterations 2
Phase-1 volume fraction = 0.377062  Min(alpha.water) = -3.92851e-24  Max(alpha.water) = 1
MULES: Correcting alpha.water
Phase-1 volume fraction = 0.377062  Min(alpha.water) = -1.03185e-20  Max(alpha.water) = 1
Relaxing time: 0.01 s
DILUPBiCG:  Solving for Ux, Initial residual = 0.000369491, Final residual = 1.83156e-10, No Iterations 3
DILUPBiCG:  Solving for Uy, Initial residual = 0.000390161, Final residual = 3.11746e-10, No Iterations 3
GAMG:  Solving for p_rgh, Initial residual = 0.000105854, Final residual = 5.57104e-08, No Iterations 8
GAMG:  Solving for p_rgh, Initial residual = 3.63368e-06, Final residual = 8.84297e-08, No Iterations 2
time step continuity errors : sum local = 1.0597e-10, global = -8.06705e-13, cumulative = -4.05801e-10
GAMG:  Solving for p_rgh, Initial residual = 5.04266e-06, Final residual = 9.80393e-08, No Iterations 2
GAMG:  Solving for p_rgh, Initial residual = 8.1829e-07, Final residual = 8.9352e-08, No Iterations 1
time step continuity errors : sum local = 1.07076e-10, global = -9.37074e-13, cumulative = -4.06738e-10
GAMG:  Solving for p_rgh, Initial residual = 5.07217e-07, Final residual = 5.54545e-08, No Iterations 1
GAMG:  Solving for p_rgh, Initial residual = 2.38277e-07, Final residual = 7.19991e-09, No Iterations 4
time step continuity errors : sum local = 8.62806e-12, global = 2.15575e-13, cumulative = -4.06523e-10
PIMPLE: converged in 3 iterations
ExecutionTime = 9.85 s  ClockTime = 65 s

forces forces write:
    Sum of forces
        Total    : (0.678865 0.262196 2.07365e-24)
        Pressure : (0.678896 0.257753 0)
        Viscous  : (-3.08148e-05 0.00444257 2.07365e-24)
    Sum of moments
        Total    : (3.91042e-24 -6.24983e-23 7.50352)
        Pressure : (0 0 7.36631)
        Viscous  : (3.91042e-24 -6.24983e-23 0.137211)
    writing force and moment files.

yPlus yPlus1 write:
    writing field yPlus
    patch BOTTOM y+ : min = 7.00469e-06, max = 104.688, average = 17.4806
    patch WALL y+ : min = 0.00184572, max = 20.7225, average = 4.09149
printing gMax(sumPhi)
0.0394561
printing gAverage(sumPhi)
0.00116854
printing gMax(sumPhi/mesh.V().field())
684.55
Courant Number mean: 0.00319629 max: 0.50898
Interface Courant Number mean: 7.10852e-05 max: 0.50898
deltaT = 0.00146363
Time = 2.01558

PIMPLE: iteration 1
smoothSolver:  Solving for alpha.water, Initial residual = 1.87178e-05, Final residual = 4.99598e-11, No Iterations 2
Phase-1 volume fraction = 0.377062  Min(alpha.water) = -3.20081e-24  Max(alpha.water) = 1
MULES: Correcting alpha.water
Phase-1 volume fraction = 0.377062  Min(alpha.water) = -2.539e-21  Max(alpha.water) = 1
Relaxing time: 0.01 s
DILUPBiCG:  Solving for Ux, Initial residual = 0.00175268, Final residual = 7.03472e-11, No Iterations 4
DILUPBiCG:  Solving for Uy, Initial residual = 0.00205791, Final residual = 2.5435e-10, No Iterations 4
GAMG:  Solving for p_rgh, Initial residual = 0.0508657, Final residual = 8.51127e-08, No Iterations 32
GAMG:  Solving for p_rgh, Initial residual = 0.000612047, Final residual = 9.74952e-08, No Iterations 6
time step continuity errors : sum local = 1.13902e-10, global = 1.33232e-12, cumulative = -4.0519e-10
GAMG:  Solving for p_rgh, Initial residual = 0.000978146, Final residual = 9.32049e-08, No Iterations 9
GAMG:  Solving for p_rgh, Initial residual = 9.75533e-05, Final residual = 4.41686e-08, No Iterations 6
time step continuity errors : sum local = 5.16495e-11, global = 1.13454e-13, cumulative = -4.05077e-10
GAMG:  Solving for p_rgh, Initial residual = 7.67621e-05, Final residual = 9.79355e-08, No Iterations 5
GAMG:  Solving for p_rgh, Initial residual = 2.90226e-05, Final residual = 7.47552e-09, No Iterations 8
time step continuity errors : sum local = 8.74108e-12, global = -4.46516e-13, cumulative = -4.05524e-10
PIMPLE: iteration 2
smoothSolver:  Solving for alpha.water, Initial residual = 1.54725e-05, Final residual = 5.74753e-11, No Iterations 2
Phase-1 volume fraction = 0.377062  Min(alpha.water) = -3.20183e-24  Max(alpha.water) = 1
MULES: Correcting alpha.water
Phase-1 volume fraction = 0.377062  Min(alpha.water) = -2.0312e-20  Max(alpha.water) = 1
Relaxing time: 0.01 s
DILUPBiCG:  Solving for Ux, Initial residual = 0.000363919, Final residual = 1.7871e-10, No Iterations 3
DILUPBiCG:  Solving for Uy, Initial residual = 0.000386226, Final residual = 2.81813e-10, No Iterations 3
GAMG:  Solving for p_rgh, Initial residual = 0.000837462, Final residual = 8.34668e-08, No Iterations 9
GAMG:  Solving for p_rgh, Initial residual = 4.08964e-05, Final residual = 9.76168e-08, No Iterations 4
time step continuity errors : sum local = 1.1384e-10, global = -3.93642e-13, cumulative = -4.05917e-10
GAMG:  Solving for p_rgh, Initial residual = 2.81156e-05, Final residual = 6.16025e-08, No Iterations 4
GAMG:  Solving for p_rgh, Initial residual = 7.68574e-06, Final residual = 6.40544e-08, No Iterations 3
time step continuity errors : sum local = 7.46977e-11, global = -2.75016e-13, cumulative = -4.06192e-10
GAMG:  Solving for p_rgh, Initial residual = 4.77638e-06, Final residual = 9.75034e-08, No Iterations 2
GAMG:  Solving for p_rgh, Initial residual = 2.56596e-06, Final residual = 9.00207e-09, No Iterations 4
time step continuity errors : sum local = 1.04978e-11, global = -1.67786e-13, cumulative = -4.0636e-10
PIMPLE: iteration 3
smoothSolver:  Solving for alpha.water, Initial residual = 1.54618e-05, Final residual = 5.76223e-11, No Iterations 2
Phase-1 volume fraction = 0.377062  Min(alpha.water) = -3.20192e-24  Max(alpha.water) = 1
MULES: Correcting alpha.water
Phase-1 volume fraction = 0.377062  Min(alpha.water) = -1.0156e-20  Max(alpha.water) = 1
Relaxing time: 0 s
DILUPBiCG:  Solving for Ux, Initial residual = 0.000363973, Final residual = 1.78335e-10, No Iterations 3
DILUPBiCG:  Solving for Uy, Initial residual = 0.000385822, Final residual = 3.09715e-10, No Iterations 3
GAMG:  Solving for p_rgh, Initial residual = 8.48887e-05, Final residual = 6.33753e-08, No Iterations 7
GAMG:  Solving for p_rgh, Initial residual = 3.17718e-06, Final residual = 5.7582e-08, No Iterations 2
time step continuity errors : sum local = 6.71253e-11, global = -1.63255e-13, cumulative = -4.06523e-10
GAMG:  Solving for p_rgh, Initial residual = 4.20635e-06, Final residual = 6.05491e-08, No Iterations 2
GAMG:  Solving for p_rgh, Initial residual = 6.30041e-07, Final residual = 6.69794e-08, No Iterations 1
time step continuity errors : sum local = 7.80801e-11, global = 1.68447e-13, cumulative = -4.06355e-10
GAMG:  Solving for p_rgh, Initial residual = 4.07743e-07, Final residual = 3.90103e-08, No Iterations 1
GAMG:  Solving for p_rgh, Initial residual = 1.75341e-07, Final residual = 6.17815e-09, No Iterations 4
time step continuity errors : sum local = 7.20207e-12, global = -1.64464e-13, cumulative = -4.06519e-10
PIMPLE: converged in 3 iterations
ExecutionTime = 10.37 s  ClockTime = 66 s

forces forces write:
    Sum of forces
        Total    : (0.684067 0.105736 2.1611e-24)
        Pressure : (0.684085 0.101373 0)
        Viscous  : (-1.74111e-05 0.00436302 2.1611e-24)
    Sum of moments
        Total    : (4.0745e-24 -6.51513e-23 2.6322)
        Pressure : (0 0 2.49749)
        Viscous  : (4.0745e-24 -6.51513e-23 0.134711)
    writing force and moment files.

yPlus yPlus1 write:
    writing field yPlus
    patch BOTTOM y+ : min = 5.12871e-06, max = 104.706, average = 17.4855
    patch WALL y+ : min = 0.00478672, max = 20.7096, average = 4.08605
printing gMax(sumPhi)
0.0394619
printing gAverage(sumPhi)
0.00116957
printing gMax(sumPhi/mesh.V().field())
698.362
Courant Number mean: 0.00314873 max: 0.511072
Interface Courant Number mean: 7.03163e-05 max: 0.511072
deltaT = 0.00142959
Time = 2.01701

PIMPLE: iteration 1
smoothSolver:  Solving for alpha.water, Initial residual = 1.83024e-05, Final residual = 4.30028e-11, No Iterations 2
Phase-1 volume fraction = 0.377063  Min(alpha.water) = -2.62129e-24  Max(alpha.water) = 1
MULES: Correcting alpha.water
Phase-1 volume fraction = 0.377063  Min(alpha.water) = -1.98396e-20  Max(alpha.water) = 1
Relaxing time: 0.01 s
DILUPBiCG:  Solving for Ux, Initial residual = 0.00171065, Final residual = 8.55022e-10, No Iterations 3
DILUPBiCG:  Solving for Uy, Initial residual = 0.00200802, Final residual = 1.26853e-10, No Iterations 4
GAMG:  Solving for p_rgh, Initial residual = 0.0502301, Final residual = 9.00234e-08, No Iterations 34
GAMG:  Solving for p_rgh, Initial residual = 0.000596174, Final residual = 9.16168e-08, No Iterations 6
time step continuity errors : sum local = 1.02243e-10, global = 3.18557e-12, cumulative = -4.03334e-10
GAMG:  Solving for p_rgh, Initial residual = 0.000958775, Final residual = 7.05316e-08, No Iterations 10
GAMG:  Solving for p_rgh, Initial residual = 9.68554e-05, Final residual = 3.92531e-08, No Iterations 6
time step continuity errors : sum local = 4.38465e-11, global = -2.41233e-12, cumulative = -4.05746e-10
GAMG:  Solving for p_rgh, Initial residual = 7.59866e-05, Final residual = 5.87995e-08, No Iterations 6
GAMG:  Solving for p_rgh, Initial residual = 2.89021e-05, Final residual = 6.43829e-09, No Iterations 8
time step continuity errors : sum local = 7.1914e-12, global = 6.78138e-13, cumulative = -4.05068e-10
PIMPLE: iteration 2
smoothSolver:  Solving for alpha.water, Initial residual = 1.47769e-05, Final residual = 4.73566e-11, No Iterations 2
Phase-1 volume fraction = 0.377063  Min(alpha.water) = -2.62214e-24  Max(alpha.water) = 1
MULES: Correcting alpha.water
Phase-1 volume fraction = 0.377063  Min(alpha.water) = -1.54997e-22  Max(alpha.water) = 1
Relaxing time: 0 s
DILUPBiCG:  Solving for Ux, Initial residual = 0.000357389, Final residual = 1.58047e-10, No Iterations 3
DILUPBiCG:  Solving for Uy, Initial residual = 0.000381631, Final residual = 2.58378e-10, No Iterations 3
GAMG:  Solving for p_rgh, Initial residual = 0.000816825, Final residual = 8.06128e-08, No Iterations 9
GAMG:  Solving for p_rgh, Initial residual = 3.92684e-05, Final residual = 9.31638e-08, No Iterations 4
time step continuity errors : sum local = 1.03922e-10, global = 1.34476e-12, cumulative = -4.03723e-10
GAMG:  Solving for p_rgh, Initial residual = 2.63154e-05, Final residual = 6.00145e-08, No Iterations 4
GAMG:  Solving for p_rgh, Initial residual = 7.43988e-06, Final residual = 6.2327e-08, No Iterations 3
time step continuity errors : sum local = 6.95222e-11, global = -1.00779e-13, cumulative = -4.03824e-10
GAMG:  Solving for p_rgh, Initial residual = 4.63177e-06, Final residual = 9.36763e-08, No Iterations 2
GAMG:  Solving for p_rgh, Initial residual = 2.4847e-06, Final residual = 5.19688e-09, No Iterations 5
time step continuity errors : sum local = 5.79681e-12, global = -4.74994e-14, cumulative = -4.03871e-10
PIMPLE: iteration 3
smoothSolver:  Solving for alpha.water, Initial residual = 1.47657e-05, Final residual = 4.76898e-11, No Iterations 2
Phase-1 volume fraction = 0.377063  Min(alpha.water) = -2.62215e-24  Max(alpha.water) = 1
MULES: Correcting alpha.water
Phase-1 volume fraction = 0.377063  Min(alpha.water) = -3.09994e-22  Max(alpha.water) = 1
Relaxing time: 0.01 s
DILUPBiCG:  Solving for Ux, Initial residual = 0.000357362, Final residual = 1.61978e-10, No Iterations 3
DILUPBiCG:  Solving for Uy, Initial residual = 0.000381404, Final residual = 2.59905e-10, No Iterations 3
GAMG:  Solving for p_rgh, Initial residual = 8.80758e-05, Final residual = 7.23883e-08, No Iterations 7
GAMG:  Solving for p_rgh, Initial residual = 3.2327e-06, Final residual = 6.49529e-08, No Iterations 2
time step continuity errors : sum local = 7.24461e-11, global = -3.29908e-13, cumulative = -4.04201e-10
GAMG:  Solving for p_rgh, Initial residual = 4.32002e-06, Final residual = 7.71673e-08, No Iterations 2
GAMG:  Solving for p_rgh, Initial residual = 6.68648e-07, Final residual = 7.66959e-08, No Iterations 1
time step continuity errors : sum local = 8.55437e-11, global = -3.30015e-13, cumulative = -4.04531e-10
GAMG:  Solving for p_rgh, Initial residual = 4.32899e-07, Final residual = 4.47933e-08, No Iterations 1
GAMG:  Solving for p_rgh, Initial residual = 1.97072e-07, Final residual = 6.9742e-09, No Iterations 4
time step continuity errors : sum local = 7.77876e-12, global = -1.21235e-13, cumulative = -4.04653e-10
PIMPLE: converged in 3 iterations
ExecutionTime = 10.91 s  ClockTime = 66 s

forces forces write:
    Sum of forces
        Total    : (0.688924 0.110853 2.24101e-24)
        Pressure : (0.688925 0.10657 0)
        Viscous  : (-6.72721e-07 0.00428321 2.24101e-24)
    Sum of moments
        Total    : (4.22521e-24 -6.75903e-23 2.72093)
        Pressure : (0 0 2.58873)
        Viscous  : (4.22521e-24 -6.75903e-23 0.132195)
    writing force and moment files.

yPlus yPlus1 write:
    writing field yPlus
    patch BOTTOM y+ : min = 3.51941e-06, max = 104.722, average = 17.4902
    patch WALL y+ : min = 0.0062565, max = 20.6592, average = 4.07795
printing gMax(sumPhi)
0.0394663
printing gAverage(sumPhi)
0.00117059
printing gMax(sumPhi/mesh.V().field())
717.449
Courant Number mean: 0.00307818 max: 0.51283
Interface Courant Number mean: 6.86699e-05 max: 0.506328
deltaT = 0.00139685
Time = 2.01841

PIMPLE: iteration 1
smoothSolver:  Solving for alpha.water, Initial residual = 1.78997e-05, Final residual = 3.73747e-11, No Iterations 2
Phase-1 volume fraction = 0.377063  Min(alpha.water) = -2.15298e-24  Max(alpha.water) = 1
MULES: Correcting alpha.water
Phase-1 volume fraction = 0.377063  Min(alpha.water) = -9.69263e-21  Max(alpha.water) = 1
Relaxing time: 0.01 s
DILUPBiCG:  Solving for Ux, Initial residual = 0.0016705, Final residual = 7.83763e-10, No Iterations 3
DILUPBiCG:  Solving for Uy, Initial residual = 0.00196348, Final residual = 1.76698e-10, No Iterations 4
GAMG:  Solving for p_rgh, Initial residual = 0.0495196, Final residual = 9.36148e-08, No Iterations 34
GAMG:  Solving for p_rgh, Initial residual = 0.000596173, Final residual = 8.19595e-08, No Iterations 6
time step continuity errors : sum local = 8.74542e-11, global = 3.67339e-12, cumulative = -4.00979e-10
GAMG:  Solving for p_rgh, Initial residual = 0.000923182, Final residual = 9.72248e-08, No Iterations 9
GAMG:  Solving for p_rgh, Initial residual = 9.43967e-05, Final residual = 9.31702e-08, No Iterations 5
time step continuity errors : sum local = 9.95059e-11, global = 2.13497e-13, cumulative = -4.00766e-10
GAMG:  Solving for p_rgh, Initial residual = 7.28635e-05, Final residual = 9.23403e-08, No Iterations 5
GAMG:  Solving for p_rgh, Initial residual = 2.8086e-05, Final residual = 8.05471e-09, No Iterations 8
time step continuity errors : sum local = 8.60194e-12, global = 8.10043e-14, cumulative = -4.00685e-10
PIMPLE: iteration 2
smoothSolver:  Solving for alpha.water, Initial residual = 1.41562e-05, Final residual = 3.87018e-11, No Iterations 2
Phase-1 volume fraction = 0.377063  Min(alpha.water) = -2.1536e-24  Max(alpha.water) = 1
MULES: Correcting alpha.water
Phase-1 volume fraction = 0.377063  Min(alpha.water) = -4.84631e-21  Max(alpha.water) = 1
Relaxing time: 0.02 s
DILUPBiCG:  Solving for Ux, Initial residual = 0.000351276, Final residual = 1.43429e-10, No Iterations 3
DILUPBiCG:  Solving for Uy, Initial residual = 0.000378358, Final residual = 2.53487e-10, No Iterations 3
GAMG:  Solving for p_rgh, Initial residual = 0.000791736, Final residual = 9.82639e-08, No Iterations 8
GAMG:  Solving for p_rgh, Initial residual = 3.86123e-05, Final residual = 9.83845e-08, No Iterations 4
time step continuity errors : sum local = 1.04937e-10, global = 7.14271e-14, cumulative = -4.00613e-10
GAMG:  Solving for p_rgh, Initial residual = 2.48657e-05, Final residual = 6.32558e-08, No Iterations 4
GAMG:  Solving for p_rgh, Initial residual = 7.25215e-06, Final residual = 6.22763e-08, No Iterations 3
time step continuity errors : sum local = 6.64229e-11, global = -3.40073e-13, cumulative = -4.00953e-10
GAMG:  Solving for p_rgh, Initial residual = 4.45342e-06, Final residual = 9.67775e-08, No Iterations 2
GAMG:  Solving for p_rgh, Initial residual = 2.47742e-06, Final residual = 6.07199e-09, No Iterations 5
time step continuity errors : sum local = 6.47629e-12, global = 2.77628e-13, cumulative = -4.00676e-10
PIMPLE: iteration 3
smoothSolver:  Solving for alpha.water, Initial residual = 1.41465e-05, Final residual = 3.87556e-11, No Iterations 2
Phase-1 volume fraction = 0.377063  Min(alpha.water) = -2.15362e-24  Max(alpha.water) = 1
MULES: Correcting alpha.water
Phase-1 volume fraction = 0.377063  Min(alpha.water) = -5.81423e-24  Max(alpha.water) = 1
Relaxing time: 0.02 s
DILUPBiCG:  Solving for Ux, Initial residual = 0.000351238, Final residual = 1.44801e-10, No Iterations 3
DILUPBiCG:  Solving for Uy, Initial residual = 0.000378107, Final residual = 2.49204e-10, No Iterations 3
GAMG:  Solving for p_rgh, Initial residual = 8.70938e-05, Final residual = 9.63826e-08, No Iterations 6
GAMG:  Solving for p_rgh, Initial residual = 3.37529e-06, Final residual = 7.51126e-08, No Iterations 2
time step continuity errors : sum local = 8.01239e-11, global = -7.40201e-13, cumulative = -4.01416e-10
GAMG:  Solving for p_rgh, Initial residual = 4.20195e-06, Final residual = 7.43454e-08, No Iterations 2
GAMG:  Solving for p_rgh, Initial residual = 7.23114e-07, Final residual = 8.04542e-08, No Iterations 1
time step continuity errors : sum local = 8.58217e-11, global = -7.77127e-13, cumulative = -4.02193e-10
GAMG:  Solving for p_rgh, Initial residual = 4.45866e-07, Final residual = 4.66411e-08, No Iterations 1
GAMG:  Solving for p_rgh, Initial residual = 2.08189e-07, Final residual = 8.07416e-09, No Iterations 4
time step continuity errors : sum local = 8.61282e-12, global = 4.3021e-13, cumulative = -4.01763e-10
PIMPLE: converged in 3 iterations
ExecutionTime = 11.45 s  ClockTime = 67 s

forces forces write:
    Sum of forces
        Total    : (0.697589 0.118144 2.35236e-24)
        Pressure : (0.697575 0.113954 0)
        Viscous  : (1.39087e-05 0.00418984 2.35236e-24)
    Sum of moments
        Total    : (4.43744e-24 -7.10251e-23 2.8783)
        Pressure : (0 0 2.74904)
        Viscous  : (4.43744e-24 -7.10251e-23 0.129255)
    writing force and moment files.

yPlus yPlus1 write:
    writing field yPlus
    patch BOTTOM y+ : min = 2.13129e-06, max = 104.737, average = 17.4947
    patch WALL y+ : min = 0.00718573, max = 20.5189, average = 4.07256
printing gMax(sumPhi)
0.0394695
printing gAverage(sumPhi)
0.00117159
printing gMax(sumPhi/mesh.V().field())
734.457
Courant Number mean: 0.00301025 max: 0.512965
Interface Courant Number mean: 6.76156e-05 max: 0.497501
deltaT = 0.00136535
Time = 2.01977

PIMPLE: iteration 1
smoothSolver:  Solving for alpha.water, Initial residual = 1.75126e-05, Final residual = 3.27249e-11, No Iterations 2
Phase-1 volume fraction = 0.377064  Min(alpha.water) = -1.77311e-24  Max(alpha.water) = 1
MULES: Correcting alpha.water
Phase-1 volume fraction = 0.377064  Min(alpha.water) = -2.96062e-22  Max(alpha.water) = 1
Relaxing time: 0.01 s
DILUPBiCG:  Solving for Ux, Initial residual = 0.0016325, Final residual = 6.97291e-10, No Iterations 3
DILUPBiCG:  Solving for Uy, Initial residual = 0.00192225, Final residual = 2.12444e-10, No Iterations 4
GAMG:  Solving for p_rgh, Initial residual = 0.0480836, Final residual = 9.99396e-08, No Iterations 34
GAMG:  Solving for p_rgh, Initial residual = 0.000577048, Final residual = 7.55494e-08, No Iterations 6
time step continuity errors : sum local = 7.7268e-11, global = 8.03844e-13, cumulative = -4.00959e-10
GAMG:  Solving for p_rgh, Initial residual = 0.000843391, Final residual = 9.53983e-08, No Iterations 9
GAMG:  Solving for p_rgh, Initial residual = 9.04058e-05, Final residual = 9.00466e-08, No Iterations 5
time step continuity errors : sum local = 9.21703e-11, global = 6.00342e-13, cumulative = -4.00359e-10
GAMG:  Solving for p_rgh, Initial residual = 6.71562e-05, Final residual = 6.16468e-08, No Iterations 5
GAMG:  Solving for p_rgh, Initial residual = 2.69671e-05, Final residual = 5.53916e-09, No Iterations 7
time step continuity errors : sum local = 5.66946e-12, global = 1.20862e-13, cumulative = -4.00238e-10
PIMPLE: iteration 2
smoothSolver:  Solving for alpha.water, Initial residual = 1.37511e-05, Final residual = 3.20077e-11, No Iterations 2
Phase-1 volume fraction = 0.377064  Min(alpha.water) = -1.7735e-24  Max(alpha.water) = 1
MULES: Correcting alpha.water
Phase-1 volume fraction = 0.377064  Min(alpha.water) = -1.8948e-20  Max(alpha.water) = 1
Relaxing time: 0.01 s
DILUPBiCG:  Solving for Ux, Initial residual = 0.000345669, Final residual = 1.31677e-10, No Iterations 3
DILUPBiCG:  Solving for Uy, Initial residual = 0.000376731, Final residual = 2.37544e-10, No Iterations 3
GAMG:  Solving for p_rgh, Initial residual = 0.000747233, Final residual = 6.51818e-08, No Iterations 10
GAMG:  Solving for p_rgh, Initial residual = 3.61486e-05, Final residual = 7.54362e-08, No Iterations 4
time step continuity errors : sum local = 7.69917e-11, global = -5.04368e-13, cumulative = -4.00742e-10
GAMG:  Solving for p_rgh, Initial residual = 2.33995e-05, Final residual = 5.84573e-08, No Iterations 4
GAMG:  Solving for p_rgh, Initial residual = 6.69986e-06, Final residual = 5.669e-08, No Iterations 3
time step continuity errors : sum local = 5.78581e-11, global = -9.89207e-13, cumulative = -4.01731e-10
GAMG:  Solving for p_rgh, Initial residual = 4.12247e-06, Final residual = 9.14066e-08, No Iterations 2
GAMG:  Solving for p_rgh, Initial residual = 2.29779e-06, Final residual = 5.36025e-09, No Iterations 5
time step continuity errors : sum local = 5.47067e-12, global = -1.87446e-13, cumulative = -4.01919e-10
PIMPLE: iteration 3
smoothSolver:  Solving for alpha.water, Initial residual = 1.37408e-05, Final residual = 3.21112e-11, No Iterations 2
Phase-1 volume fraction = 0.377064  Min(alpha.water) = -1.77351e-24  Max(alpha.water) = 1
MULES: Correcting alpha.water
Phase-1 volume fraction = 0.377064  Min(alpha.water) = -4.737e-21  Max(alpha.water) = 1
Relaxing time: 0.01 s
DILUPBiCG:  Solving for Ux, Initial residual = 0.000345646, Final residual = 1.3319e-10, No Iterations 3
DILUPBiCG:  Solving for Uy, Initial residual = 0.000376373, Final residual = 2.35957e-10, No Iterations 3
GAMG:  Solving for p_rgh, Initial residual = 8.43698e-05, Final residual = 5.87575e-08, No Iterations 7
GAMG:  Solving for p_rgh, Initial residual = 3.13279e-06, Final residual = 5.98123e-08, No Iterations 2
time step continuity errors : sum local = 6.10571e-11, global = 1.00752e-12, cumulative = -4.00911e-10
GAMG:  Solving for p_rgh, Initial residual = 3.95763e-06, Final residual = 6.24923e-08, No Iterations 2
GAMG:  Solving for p_rgh, Initial residual = 6.62608e-07, Final residual = 7.10721e-08, No Iterations 1
time step continuity errors : sum local = 7.2551e-11, global = 4.73423e-13, cumulative = -4.00438e-10
GAMG:  Solving for p_rgh, Initial residual = 4.21127e-07, Final residual = 4.03081e-08, No Iterations 1
GAMG:  Solving for p_rgh, Initial residual = 1.97609e-07, Final residual = 9.36554e-09, No Iterations 3
time step continuity errors : sum local = 9.56043e-12, global = 6.18587e-13, cumulative = -3.99819e-10
PIMPLE: converged in 3 iterations
ExecutionTime = 11.98 s  ClockTime = 68 s

forces forces write:
    Sum of forces
        Total    : (0.712177 0.102069 2.46651e-24)
        Pressure : (0.712147 0.0979786 0)
        Viscous  : (3.00531e-05 0.00409065 2.46651e-24)
    Sum of moments
        Total    : (4.65539e-24 -7.45342e-23 2.32199)
        Pressure : (0 0 2.19586)
        Viscous  : (4.65539e-24 -7.45342e-23 0.126129)
    writing force and moment files.

yPlus yPlus1 write:
    writing field yPlus
    patch BOTTOM y+ : min = 4.22966e-06, max = 104.751, average = 17.4992
    patch WALL y+ : min = 0.00618198, max = 20.5195, average = 4.06598
printing gMax(sumPhi)
0.0394712
printing gAverage(sumPhi)
0.0011726
printing gMax(sumPhi/mesh.V().field())
746.504
Courant Number mean: 0.00294488 max: 0.509618
Interface Courant Number mean: 6.55332e-05 max: 0.485785
deltaT = 0.00133501
Time = 2.02111

PIMPLE: iteration 1
smoothSolver:  Solving for alpha.water, Initial residual = 1.71363e-05, Final residual = 2.89649e-11, No Iterations 2
Phase-1 volume fraction = 0.377064  Min(alpha.water) = -1.46378e-24  Max(alpha.water) = 1
MULES: Correcting alpha.water
Phase-1 volume fraction = 0.377064  Min(alpha.water) = -1.40572e-24  Max(alpha.water) = 1
Relaxing time: 0 s
DILUPBiCG:  Solving for Ux, Initial residual = 0.00159693, Final residual = 6.82882e-10, No Iterations 3
DILUPBiCG:  Solving for Uy, Initial residual = 0.00188144, Final residual = 1.7814e-10, No Iterations 4
GAMG:  Solving for p_rgh, Initial residual = 0.0468443, Final residual = 9.60408e-08, No Iterations 35
GAMG:  Solving for p_rgh, Initial residual = 0.000566289, Final residual = 7.21665e-08, No Iterations 6
time step continuity errors : sum local = 7.06678e-11, global = -4.40678e-12, cumulative = -4.04226e-10
GAMG:  Solving for p_rgh, Initial residual = 0.000796228, Final residual = 9.74324e-08, No Iterations 9
GAMG:  Solving for p_rgh, Initial residual = 8.58573e-05, Final residual = 7.9111e-08, No Iterations 5
[...]
time step continuity errors : sum local = 2.61513e-13, global = 3.93024e-17, cumulative = 1.17145e-08
GAMG:  Solving for p_rgh, Initial residual = 0.00018089, Final residual = 5.83782e-08, No Iterations 7
GAMG:  Solving for p_rgh, Initial residual = 0.000104137, Final residual = 5.72995e-09, No Iterations 9
time step continuity errors : sum local = 2.33773e-14, global = 1.39713e-17, cumulative = 1.17145e-08
PIMPLE: converged in 2 iterations
ExecutionTime = 266.24 s  ClockTime = 322 s

forces forces write:
    Sum of forces
        Total    : (101.189 -191.625 9.70404e-23)
        Pressure : (100.335 -192.079 0)
        Viscous  : (0.854312 0.453536 9.70404e-23)
    Sum of moments
        Total    : (1.82057e-22 -3.09768e-21 -6221.63)
        Pressure : (0 0 -6234.1)
        Viscous  : (1.82057e-22 -3.09768e-21 12.4657)
    writing force and moment files.

yPlus yPlus1 write:
    writing field yPlus
    patch BOTTOM y+ : min = 2.68863e-06, max = 105.345, average = 19.1649
    patch WALL y+ : min = 0.039391, max = 179.47, average = 14.0158
printing gMax(sumPhi)
0.191801
printing gAverage(sumPhi)
0.0015377
printing gMax(sumPhi/mesh.V().field())
34517.1
Courant Number mean: 8.1104e-05 max: 0.494877
Interface Courant Number mean: 3.57754e-06 max: 0.494877
deltaT = 2.89716e-05
Time = 2.07985

PIMPLE: iteration 1
smoothSolver:  Solving for alpha.water, Initial residual = 5.52953e-07, Final residual = 3.45181e-10, No Iterations 1
Phase-1 volume fraction = 0.377175  Min(alpha.water) = -3.15933e-25  Max(alpha.water) = 1
MULES: Correcting alpha.water
Phase-1 volume fraction = 0.377175  Min(alpha.water) = -3.15933e-25  Max(alpha.water) = 1
Relaxing time: 0.02 s
DILUPBiCG:  Solving for Ux, Initial residual = 0.000121019, Final residual = 2.54534e-13, No Iterations 6
DILUPBiCG:  Solving for Uy, Initial residual = 0.000183112, Final residual = 6.54107e-10, No Iterations 3
GAMG:  Solving for p_rgh, Initial residual = 0.012209, Final residual = 9.68499e-08, No Iterations 39
GAMG:  Solving for p_rgh, Initial residual = 0.00229902, Final residual = 6.15509e-08, No Iterations 13
time step continuity errors : sum local = 2.54767e-13, global = -5.26622e-14, cumulative = 1.17144e-08
GAMG:  Solving for p_rgh, Initial residual = 0.00146339, Final residual = 6.91298e-08, No Iterations 9
GAMG:  Solving for p_rgh, Initial residual = 0.000545373, Final residual = 8.56595e-08, No Iterations 8
time step continuity errors : sum local = 3.54899e-13, global = 6.18042e-14, cumulative = 1.17145e-08
GAMG:  Solving for p_rgh, Initial residual = 0.000396842, Final residual = 6.24534e-08, No Iterations 8
GAMG:  Solving for p_rgh, Initial residual = 0.000184047, Final residual = 8.1581e-09, No Iterations 13
time step continuity errors : sum local = 3.38062e-14, global = -5.65336e-15, cumulative = 1.17145e-08
PIMPLE: iteration 2
smoothSolver:  Solving for alpha.water, Initial residual = 5.3212e-07, Final residual = 2.72517e-10, No Iterations 1
Phase-1 volume fraction = 0.377175  Min(alpha.water) = -3.1597e-25  Max(alpha.water) = 1
MULES: Correcting alpha.water
Phase-1 volume fraction = 0.377175  Min(alpha.water) = -3.1597e-25  Max(alpha.water) = 1
Relaxing time: 0.01 s
DILUPBiCG:  Solving for Ux, Initial residual = 8.96127e-05, Final residual = 1.00531e-10, No Iterations 3
DILUPBiCG:  Solving for Uy, Initial residual = 0.000148582, Final residual = 7.61608e-10, No Iterations 2
GAMG:  Solving for p_rgh, Initial residual = 0.0049834, Final residual = 7.77624e-08, No Iterations 10
GAMG:  Solving for p_rgh, Initial residual = 0.00136406, Final residual = 9.80016e-08, No Iterations 7
time step continuity errors : sum local = 4.05839e-13, global = 2.55329e-15, cumulative = 1.17145e-08
GAMG:  Solving for p_rgh, Initial residual = 0.000683097, Final residual = 7.47695e-08, No Iterations 8
GAMG:  Solving for p_rgh, Initial residual = 0.000296722, Final residual = 9.75805e-08, No Iterations 6
time step continuity errors : sum local = 4.04187e-13, global = 2.81489e-17, cumulative = 1.17145e-08
GAMG:  Solving for p_rgh, Initial residual = 0.000187216, Final residual = 6.99825e-08, No Iterations 7
GAMG:  Solving for p_rgh, Initial residual = 0.00010451, Final residual = 7.75038e-09, No Iterations 8
time step continuity errors : sum local = 3.21039e-14, global = -4.91685e-17, cumulative = 1.17145e-08
PIMPLE: converged in 2 iterations
ExecutionTime = 266.78 s  ClockTime = 323 s

forces forces write:
    Sum of forces
        Total    : (104.335 -200.699 9.61199e-23)
        Pressure : (103.483 -201.15 0)
        Viscous  : (0.851968 0.451208 9.61199e-23)
    Sum of moments
        Total    : (1.80339e-22 -3.06844e-21 -6517.93)
        Pressure : (0 0 -6530.33)
        Viscous  : (1.80339e-22 -3.06844e-21 12.3961)
    writing force and moment files.

yPlus yPlus1 write:
    writing field yPlus
    patch BOTTOM y+ : min = 4.22466e-06, max = 105.345, average = 19.1646
    patch WALL y+ : min = 0.0373432, max = 178.486, average = 14.0294
printing gMax(sumPhi)
0.192082
printing gAverage(sumPhi)
0.00153762
printing gMax(sumPhi/mesh.V().field())
34729.9
Courant Number mean: 8.194e-05 max: 0.503091
Interface Courant Number mean: 3.64495e-06 max: 0.503091
deltaT = 2.87911e-05
Time = 2.07988

PIMPLE: iteration 1
smoothSolver:  Solving for alpha.water, Initial residual = 5.48958e-07, Final residual = 3.44776e-10, No Iterations 1
Phase-1 volume fraction = 0.377175  Min(alpha.water) = -3.14998e-25  Max(alpha.water) = 1
MULES: Correcting alpha.water
Phase-1 volume fraction = 0.377175  Min(alpha.water) = -3.14998e-25  Max(alpha.water) = 1
Relaxing time: 0.01 s
DILUPBiCG:  Solving for Ux, Initial residual = 0.000119506, Final residual = 9.56432e-10, No Iterations 4
DILUPBiCG:  Solving for Uy, Initial residual = 0.000179242, Final residual = 2.52085e-10, No Iterations 4
GAMG:  Solving for p_rgh, Initial residual = 0.0121483, Final residual = 9.62044e-08, No Iterations 37
GAMG:  Solving for p_rgh, Initial residual = 0.00228975, Final residual = 9.87589e-08, No Iterations 12
time step continuity errors : sum local = 4.04736e-13, global = -2.31188e-13, cumulative = 1.17143e-08
GAMG:  Solving for p_rgh, Initial residual = 0.00146294, Final residual = 6.81153e-08, No Iterations 11
GAMG:  Solving for p_rgh, Initial residual = 0.000560174, Final residual = 6.18455e-08, No Iterations 9
time step continuity errors : sum local = 2.53698e-13, global = -6.03772e-14, cumulative = 1.17142e-08
GAMG:  Solving for p_rgh, Initial residual = 0.000375226, Final residual = 6.48078e-08, No Iterations 8
GAMG:  Solving for p_rgh, Initial residual = 0.000187634, Final residual = 7.97435e-09, No Iterations 14
time step continuity errors : sum local = 3.27212e-14, global = -1.98901e-14, cumulative = 1.17142e-08
PIMPLE: iteration 2
smoothSolver:  Solving for alpha.water, Initial residual = 5.32275e-07, Final residual = 2.7731e-10, No Iterations 1
Phase-1 volume fraction = 0.377175  Min(alpha.water) = -3.15032e-25  Max(alpha.water) = 1
MULES: Correcting alpha.water
Phase-1 volume fraction = 0.377175  Min(alpha.water) = -3.15032e-25  Max(alpha.water) = 1
Relaxing time: 0.01 s
DILUPBiCG:  Solving for Ux, Initial residual = 8.97095e-05, Final residual = 9.91256e-11, No Iterations 3
DILUPBiCG:  Solving for Uy, Initial residual = 0.000147468, Final residual = 2.93463e-10, No Iterations 3
GAMG:  Solving for p_rgh, Initial residual = 0.00625251, Final residual = 9.69393e-08, No Iterations 11
GAMG:  Solving for p_rgh, Initial residual = 0.00152421, Final residual = 9.27358e-08, No Iterations 9
time step continuity errors : sum local = 3.79366e-13, global = -9.57294e-14, cumulative = 1.17141e-08
GAMG:  Solving for p_rgh, Initial residual = 0.000821777, Final residual = 8.44497e-08, No Iterations 12
GAMG:  Solving for p_rgh, Initial residual = 0.000352584, Final residual = 6.89651e-08, No Iterations 8
time step continuity errors : sum local = 2.82296e-13, global = -3.63111e-14, cumulative = 1.1714e-08
GAMG:  Solving for p_rgh, Initial residual = 0.000214059, Final residual = 7.18333e-08, No Iterations 8
GAMG:  Solving for p_rgh, Initial residual = 0.00012006, Final residual = 9.38703e-09, No Iterations 12
time step continuity errors : sum local = 3.84297e-14, global = -2.26285e-14, cumulative = 1.1714e-08
PIMPLE: converged in 2 iterations
ExecutionTime = 267.35 s  ClockTime = 323 s

forces forces write:
    Sum of forces
        Total    : (101.365 -188.669 9.46858e-23)
        Pressure : (100.517 -189.118 0)
        Viscous  : (0.848484 0.448593 9.46858e-23)
    Sum of moments
        Total    : (1.77547e-22 -3.02285e-21 -6134.77)
        Pressure : (0 0 -6147.09)
        Viscous  : (1.77547e-22 -3.02285e-21 12.3198)
    writing force and moment files.

yPlus yPlus1 write:
    writing field yPlus
    patch BOTTOM y+ : min = 3.93247e-06, max = 105.345, average = 19.1643
    patch WALL y+ : min = 0.0335969, max = 178.455, average = 14.0297
printing gMax(sumPhi)
0.192403
printing gAverage(sumPhi)
0.00153736
printing gMax(sumPhi/mesh.V().field())
34400.3
Courant Number mean: 8.14162e-05 max: 0.495211
Interface Courant Number mean: 3.65311e-06 max: 0.495211
deltaT = 2.90698e-05
Time = 2.07991

PIMPLE: iteration 1
smoothSolver:  Solving for alpha.water, Initial residual = 5.54326e-07, Final residual = 3.56867e-10, No Iterations 1
Phase-1 volume fraction = 0.377175  Min(alpha.water) = -3.14083e-25  Max(alpha.water) = 1
MULES: Correcting alpha.water
Phase-1 volume fraction = 0.377175  Min(alpha.water) = -3.14083e-25  Max(alpha.water) = 1
Relaxing time: 0.01 s
DILUPBiCG:  Solving for Ux, Initial residual = 0.00012114, Final residual = 6.61545e-10, No Iterations 4
DILUPBiCG:  Solving for Uy, Initial residual = 0.000180567, Final residual = 1.09485e-11, No Iterations 4
GAMG:  Solving for p_rgh, Initial residual = 0.0126196, Final residual = 8.45845e-08, No Iterations 40
GAMG:  Solving for p_rgh, Initial residual = 0.00280731, Final residual = 8.82822e-08, No Iterations 9
time step continuity errors : sum local = 3.65439e-13, global = -1.31754e-14, cumulative = 1.1714e-08
GAMG:  Solving for p_rgh, Initial residual = 0.00167312, Final residual = 9.37314e-08, No Iterations 9
GAMG:  Solving for p_rgh, Initial residual = 0.000712485, Final residual = 8.61827e-08, No Iterations 8
time step continuity errors : sum local = 3.57011e-13, global = 1.35705e-15, cumulative = 1.1714e-08
GAMG:  Solving for p_rgh, Initial residual = 0.000471873, Final residual = 8.61484e-08, No Iterations 8
GAMG:  Solving for p_rgh, Initial residual = 0.000241707, Final residual = 7.38142e-09, No Iterations 10
time step continuity errors : sum local = 3.05922e-14, global = 1.34114e-15, cumulative = 1.1714e-08
PIMPLE: iteration 2
smoothSolver:  Solving for alpha.water, Initial residual = 5.35298e-07, Final residual = 2.90752e-10, No Iterations 1
Phase-1 volume fraction = 0.377175  Min(alpha.water) = -3.14119e-25  Max(alpha.water) = 1
MULES: Correcting alpha.water
Phase-1 volume fraction = 0.377175  Min(alpha.water) = -5.0428e-23  Max(alpha.water) = 1
Relaxing time: 0.01 s
DILUPBiCG:  Solving for Ux, Initial residual = 8.97921e-05, Final residual = 2.43344e-10, No Iterations 3
DILUPBiCG:  Solving for Uy, Initial residual = 0.000146422, Final residual = 7.44689e-11, No Iterations 3
GAMG:  Solving for p_rgh, Initial residual = 0.00651848, Final residual = 6.09406e-08, No Iterations 11
GAMG:  Solving for p_rgh, Initial residual = 0.00177439, Final residual = 9.60087e-08, No Iterations 11
time step continuity errors : sum local = 3.96451e-13, global = -1.4864e-13, cumulative = 1.17139e-08
GAMG:  Solving for p_rgh, Initial residual = 0.000942846, Final residual = 9.01405e-08, No Iterations 13
GAMG:  Solving for p_rgh, Initial residual = 0.000416108, Final residual = 9.28718e-08, No Iterations 9
time step continuity errors : sum local = 3.83866e-13, global = -1.82632e-13, cumulative = 1.17137e-08
GAMG:  Solving for p_rgh, Initial residual = 0.000247497, Final residual = 7.56692e-08, No Iterations 10
GAMG:  Solving for p_rgh, Initial residual = 0.00014433, Final residual = 9.7382e-09, No Iterations 16
time step continuity errors : sum local = 4.02574e-14, global = -2.02551e-14, cumulative = 1.17137e-08
PIMPLE: converged in 2 iterations
ExecutionTime = 267.93 s  ClockTime = 324 s

forces forces write:
    Sum of forces
        Total    : (103.447 -210.512 9.36623e-23)
        Pressure : (102.601 -210.958 0)
        Viscous  : (0.845955 0.44634 9.36623e-23)
    Sum of moments
        Total    : (1.75643e-22 -2.99027e-21 -6826.99)
        Pressure : (0 0 -6839.24)
        Viscous  : (1.75643e-22 -2.99027e-21 12.253)
    writing force and moment files.

yPlus yPlus1 write:
    writing field yPlus
    patch BOTTOM y+ : min = 5.60337e-06, max = 105.345, average = 19.1639
    patch WALL y+ : min = 0.0290267, max = 177.515, average = 14.0404
printing gMax(sumPhi)
0.193516
printing gAverage(sumPhi)
0.00153707
printing gMax(sumPhi/mesh.V().field())
34624.4
Courant Number mean: 8.21886e-05 max: 0.503261
Interface Courant Number mean: 3.69269e-06 max: 0.503261
deltaT = 2.8881e-05
Time = 2.07994

PIMPLE: iteration 1
smoothSolver:  Solving for alpha.water, Initial residual = 5.50542e-07, Final residual = 3.57968e-10, No Iterations 1
Phase-1 volume fraction = 0.377176  Min(alpha.water) = -3.13211e-25  Max(alpha.water) = 1
MULES: Correcting alpha.water
Phase-1 volume fraction = 0.377176  Min(alpha.water) = -3.13211e-25  Max(alpha.water) = 1
Relaxing time: 0.01 s
DILUPBiCG:  Solving for Ux, Initial residual = 0.000119777, Final residual = 4.0527e-10, No Iterations 4
DILUPBiCG:  Solving for Uy, Initial residual = 0.000176955, Final residual = 8.82195e-10, No Iterations 3
GAMG:  Solving for p_rgh, Initial residual = 0.0143452, Final residual = 8.50086e-08, No Iterations 38
GAMG:  Solving for p_rgh, Initial residual = 0.00264564, Final residual = 7.92307e-08, No Iterations 10
time step continuity errors : sum local = 3.23211e-13, global = 1.05034e-13, cumulative = 1.17138e-08
GAMG:  Solving for p_rgh, Initial residual = 0.00169829, Final residual = 4.99318e-08, No Iterations 9
GAMG:  Solving for p_rgh, Initial residual = 0.000606759, Final residual = 7.62738e-08, No Iterations 8
time step continuity errors : sum local = 3.11191e-13, global = -3.72795e-15, cumulative = 1.17138e-08
GAMG:  Solving for p_rgh, Initial residual = 0.000401604, Final residual = 9.84151e-08, No Iterations 7
GAMG:  Solving for p_rgh, Initial residual = 0.000196956, Final residual = 6.21979e-09, No Iterations 10
time step continuity errors : sum local = 2.5386e-14, global = -3.4205e-15, cumulative = 1.17138e-08
PIMPLE: iteration 2
smoothSolver:  Solving for alpha.water, Initial residual = 5.3561e-07, Final residual = 3.02235e-10, No Iterations 1
Phase-1 volume fraction = 0.377176  Min(alpha.water) = -3.13246e-25  Max(alpha.water) = 1
MULES: Correcting alpha.water
Phase-1 volume fraction = 0.377176  Min(alpha.water) = -3.13246e-25  Max(alpha.water) = 1
Relaxing time: 0.01 s
DILUPBiCG:  Solving for Ux, Initial residual = 8.98879e-05, Final residual = 4.18741e-11, No Iterations 3
DILUPBiCG:  Solving for Uy, Initial residual = 0.000145257, Final residual = 2.13214e-10, No Iterations 3
GAMG:  Solving for p_rgh, Initial residual = 0.0067969, Final residual = 9.15906e-08, No Iterations 10
GAMG:  Solving for p_rgh, Initial residual = 0.00183644, Final residual = 7.15198e-08, No Iterations 11
time step continuity errors : sum local = 2.90782e-13, global = 9.22985e-14, cumulative = 1.17139e-08
GAMG:  Solving for p_rgh, Initial residual = 0.00105547, Final residual = 7.93138e-08, No Iterations 13
GAMG:  Solving for p_rgh, Initial residual = 0.000467483, Final residual = 7.27967e-08, No Iterations 10
time step continuity errors : sum local = 2.96085e-13, global = -1.27639e-13, cumulative = 1.17137e-08
GAMG:  Solving for p_rgh, Initial residual = 0.000281413, Final residual = 8.33738e-08, No Iterations 9
GAMG:  Solving for p_rgh, Initial residual = 0.000163697, Final residual = 7.7017e-09, No Iterations 15
time step continuity errors : sum local = 3.13268e-14, global = -1.44914e-14, cumulative = 1.17137e-08
PIMPLE: converged in 2 iterations
ExecutionTime = 268.51 s  ClockTime = 324 s

forces forces write:
    Sum of forces
        Total    : (103.646 -219.463 9.23613e-23)
        Pressure : (102.803 -219.906 0)
        Viscous  : (0.842197 0.443909 9.23613e-23)
    Sum of moments
        Total    : (1.73161e-22 -2.94881e-21 -7109.17)
        Pressure : (0 0 -7121.35)
        Viscous  : (1.73161e-22 -2.94881e-21 12.183)
    writing force and moment files.

yPlus yPlus1 write:
    writing field yPlus
    patch BOTTOM y+ : min = 3.84456e-06, max = 105.346, average = 19.1636
    patch WALL y+ : min = 0.0230007, max = 177.529, average = 14.0451
printing gMax(sumPhi)
0.196436
printing gAverage(sumPhi)
0.00153669
printing gMax(sumPhi/mesh.V().field())
34298.4
Courant Number mean: 8.16347e-05 max: 0.495286
Interface Courant Number mean: 3.67598e-06 max: 0.495286
deltaT = 2.91545e-05
Time = 2.07997

PIMPLE: iteration 1
smoothSolver:  Solving for alpha.water, Initial residual = 5.55811e-07, Final residual = 3.6827e-10, No Iterations 1
Phase-1 volume fraction = 0.377176  Min(alpha.water) = -3.12364e-25  Max(alpha.water) = 1
MULES: Correcting alpha.water
Phase-1 volume fraction = 0.377176  Min(alpha.water) = -3.12364e-25  Max(alpha.water) = 1
Relaxing time: 0.01 s
DILUPBiCG:  Solving for Ux, Initial residual = 0.000121512, Final residual = 4.33296e-10, No Iterations 4
DILUPBiCG:  Solving for Uy, Initial residual = 0.00017803, Final residual = 1.311e-10, No Iterations 4
GAMG:  Solving for p_rgh, Initial residual = 0.0153407, Final residual = 9.40885e-08, No Iterations 40
GAMG:  Solving for p_rgh, Initial residual = 0.00305391, Final residual = 9.76996e-08, No Iterations 7
time step continuity errors : sum local = 4.03518e-13, global = 2.49127e-14, cumulative = 1.17137e-08
GAMG:  Solving for p_rgh, Initial residual = 0.00194219, Final residual = 7.66225e-08, No Iterations 7
GAMG:  Solving for p_rgh, Initial residual = 0.000729817, Final residual = 4.45789e-08, No Iterations 7
time step continuity errors : sum local = 1.84028e-13, global = 1.04373e-16, cumulative = 1.17137e-08
GAMG:  Solving for p_rgh, Initial residual = 0.000465674, Final residual = 4.6746e-08, No Iterations 7
GAMG:  Solving for p_rgh, Initial residual = 0.000231445, Final residual = 5.3842e-09, No Iterations 9
time step continuity errors : sum local = 2.22313e-14, global = -5.3934e-16, cumulative = 1.17137e-08
PIMPLE: iteration 2
smoothSolver:  Solving for alpha.water, Initial residual = 5.37273e-07, Final residual = 2.97328e-10, No Iterations 1
Phase-1 volume fraction = 0.377176  Min(alpha.water) = -3.12401e-25  Max(alpha.water) = 1
MULES: Correcting alpha.water
Phase-1 volume fraction = 0.377176  Min(alpha.water) = -3.12401e-25  Max(alpha.water) = 1
Relaxing time: 0.01 s
DILUPBiCG:  Solving for Ux, Initial residual = 8.98984e-05, Final residual = 7.57602e-10, No Iterations 2
DILUPBiCG:  Solving for Uy, Initial residual = 0.000144183, Final residual = 3.92817e-11, No Iterations 3
GAMG:  Solving for p_rgh, Initial residual = 0.00564313, Final residual = 8.67471e-08, No Iterations 10
GAMG:  Solving for p_rgh, Initial residual = 0.00162105, Final residual = 7.30633e-08, No Iterations 9
time step continuity errors : sum local = 3.0082e-13, global = 3.17471e-14, cumulative = 1.17138e-08
--------------------------------------------------------------------------
Primary job  terminated normally, but 1 process returned
a non-zero exit code. Per user-direction, the job has been aborted.
--------------------------------------------------------------------------
--------------------------------------------------------------------------
mpirun noticed that process rank 28 with PID 0 on node DESKTOP-I4BRV78 exited on signal 15 (Terminated).
--------------------------------------------------------------------------
